<?xml version="1.0" encoding="UTF-8"?>

<!-- generated on 07/11/21 00:11:46 by Eclipse SUMO netedit Version 1.8.0
<configuration xmlns:xsi="http://www.w3.org/2001/XMLSchema-instance" xsi:noNamespaceSchemaLocation="http://sumo.dlr.de/xsd/netconvertConfiguration.xsd">

    <input>
        <sumo-net-file value="E:\edu\Grad_Sumo\Deep-QLearning-Agent-for-Traffic-Signal-Control-master\Deep-QLearning-Agent-for-Traffic-Signal-Control-master\TLCS\intersection\new.net.xml"/>
    </input>

    <output>
        <output-file value="C:\Users\hp\Desktop\lastedit1.net.xml"/>
    </output>

    <processing>
        <geometry.min-radius.fix.railways value="false"/>
        <geometry.max-grade.fix value="false"/>
        <offset.disable-normalization value="true"/>
        <lefthand value="false"/>
    </processing>

    <junctions>
        <no-turnarounds value="true"/>
        <junctions.corner-detail value="5"/>
        <junctions.limit-turn-speed value="5.5"/>
        <rectangular-lane-cut value="false"/>
    </junctions>

    <pedestrian>
        <walkingareas value="false"/>
    </pedestrian>

    <report>
        <aggregate-warnings value="5"/>
    </report>

</configuration>
-->

<net version="1.6" junctionCornerDetail="5" limitTurnSpeed="5.50" xmlns:xsi="http://www.w3.org/2001/XMLSchema-instance" xsi:noNamespaceSchemaLocation="http://sumo.dlr.de/xsd/net_file.xsd">

    <location netOffset="0.00,0.00" convBoundary="-800.00,-1600.00,1600.00,800.00" origBoundary="-10000000000.00,-10000000000.00,10000000000.00,10000000000.00" projParameter="!"/>

    <edge id=":TL1_0" function="internal">
        <lane id=":TL1_0_0" index="0" speed="6.51" length="9.03" shape="-11.20,16.80 -11.55,14.35 -12.60,12.60 -14.35,11.55 -16.80,11.20"/>
    </edge>
    <edge id=":TL1_1" function="internal">
        <lane id=":TL1_1_0" index="0" speed="13.89" length="33.60" shape="-11.20,16.80 -11.20,-16.80"/>
        <lane id=":TL1_1_1" index="1" speed="13.89" length="33.60" shape="-8.00,16.80 -8.00,-16.80"/>
        <lane id=":TL1_1_2" index="2" speed="13.89" length="33.60" shape="-4.80,16.80 -4.80,-16.80"/>
    </edge>
    <edge id=":TL1_4" function="internal">
        <lane id=":TL1_4_0" index="0" speed="11.36" length="29.67" shape="-1.60,16.80 -0.45,8.75 3.00,3.00 8.75,-0.45 16.80,-1.60"/>
    </edge>
    <edge id=":TL1_5" function="internal">
        <lane id=":TL1_5_0" index="0" speed="6.51" length="9.03" shape="16.80,11.20 14.35,11.55 12.60,12.60 11.55,14.35 11.20,16.80"/>
    </edge>
    <edge id=":TL1_6" function="internal">
        <lane id=":TL1_6_0" index="0" speed="13.89" length="33.60" shape="16.80,11.20 -16.80,11.20"/>
        <lane id=":TL1_6_1" index="1" speed="13.89" length="33.60" shape="16.80,8.00 -16.80,8.00"/>
        <lane id=":TL1_6_2" index="2" speed="13.89" length="33.60" shape="16.80,4.80 -16.80,4.80"/>
    </edge>
    <edge id=":TL1_9" function="internal">
        <lane id=":TL1_9_0" index="0" speed="11.36" length="29.67" shape="16.80,1.60 8.75,0.45 3.00,-3.00 -0.45,-8.75 -1.60,-16.80"/>
    </edge>
    <edge id=":TL1_10" function="internal">
        <lane id=":TL1_10_0" index="0" speed="6.51" length="9.03" shape="11.20,-16.80 11.55,-14.35 12.60,-12.60 14.35,-11.55 16.80,-11.20"/>
    </edge>
    <edge id=":TL1_11" function="internal">
        <lane id=":TL1_11_0" index="0" speed="13.89" length="33.60" shape="11.20,-16.80 11.20,16.80"/>
        <lane id=":TL1_11_1" index="1" speed="13.89" length="33.60" shape="8.00,-16.80 8.00,16.80"/>
        <lane id=":TL1_11_2" index="2" speed="13.89" length="33.60" shape="4.80,-16.80 4.80,16.80"/>
    </edge>
    <edge id=":TL1_14" function="internal">
        <lane id=":TL1_14_0" index="0" speed="11.36" length="29.67" shape="1.60,-16.80 0.45,-8.75 -3.00,-3.00 -8.75,0.45 -16.80,1.60"/>
    </edge>
    <edge id=":TL1_15" function="internal">
        <lane id=":TL1_15_0" index="0" speed="6.51" length="9.03" shape="-16.80,-11.20 -14.35,-11.55 -12.60,-12.60 -11.55,-14.35 -11.20,-16.80"/>
    </edge>
    <edge id=":TL1_16" function="internal">
        <lane id=":TL1_16_0" index="0" speed="13.89" length="33.60" shape="-16.80,-11.20 16.80,-11.20"/>
        <lane id=":TL1_16_1" index="1" speed="13.89" length="33.60" shape="-16.80,-8.00 16.80,-8.00"/>
        <lane id=":TL1_16_2" index="2" speed="13.89" length="33.60" shape="-16.80,-4.80 16.80,-4.80"/>
    </edge>
    <edge id=":TL1_19" function="internal">
        <lane id=":TL1_19_0" index="0" speed="11.36" length="29.67" shape="-16.80,-1.60 -8.75,-0.45 -3.00,3.00 0.45,8.75 1.60,16.80"/>
    </edge>
    <edge id=":TL2_0" function="internal">
        <lane id=":TL2_0_0" index="0" speed="6.51" length="9.03" shape="788.80,16.80 788.45,14.35 787.40,12.60 785.65,11.55 750.00,11.20"/>
    </edge>
    <edge id=":TL2_1" function="internal">
        <lane id=":TL2_1_0" index="0" speed="13.89" length="33.60" shape="788.80,16.80 788.80,-16.80"/>
        <lane id=":TL2_1_1" index="1" speed="13.89" length="33.60" shape="792.00,16.80 792.00,-16.80"/>
        <lane id=":TL2_1_2" index="2" speed="13.89" length="33.60" shape="795.20,16.80 795.20,-16.80"/>
        <lane id=":TL2_1_3" index="3" speed="13.89" length="33.60" shape="798.40,16.80 798.40,-16.80"/>
    </edge>
    <edge id=":TL2_5" function="internal">
        <lane id=":TL2_5_0" index="0" speed="11.36" length="9.01" shape="798.40,16.80 799.55,8.75 800.00,8.00"/>
    </edge>
    <edge id=":TL2_28" function="internal">
        <lane id=":TL2_28_0" index="0" speed="11.36" length="20.67" shape="800.00,8.00 803.00,3.00 808.75,-0.45 816.80,-1.60"/>
    </edge>
    <edge id=":TL2_6" function="internal">
        <lane id=":TL2_6_0" index="0" speed="6.51" length="9.03" shape="816.80,11.20 814.35,11.55 812.60,12.60 811.55,14.35 811.20,16.80"/>
    </edge>
    <edge id=":TL2_7" function="internal">
        <lane id=":TL2_7_0" index="0" speed="8.00" length="14.19" shape="816.80,8.00 812.95,8.55 810.20,10.20 808.55,12.95 808.00,16.80"/>
    </edge>
    <edge id=":TL2_8" function="internal">
        <lane id=":TL2_8_0" index="0" speed="13.89" length="33.70" shape="816.80,8.00 806.80,8.50 800.00,9.60 793.20,10.70 750.00,11.20"/>
        <lane id=":TL2_8_1" index="1" speed="13.89" length="33.70" shape="816.80,8.00 750.00,8.00"/>
        <lane id=":TL2_8_2" index="2" speed="13.89" length="33.70" shape="816.80,4.80 750.00,4.80"/>
        <lane id=":TL2_8_3" index="3" speed="13.89" length="33.70" shape="816.80,4.80 806.80,4.30 800.00,3.20 793.20,2.10 750.00,1.60"/>
    </edge>
    <edge id=":TL2_12" function="internal">
        <lane id=":TL2_12_0" index="0" speed="12.28" length="18.56" shape="816.80,4.80 807.35,3.45 800.60,-0.60 800.01,-1.58"/>
    </edge>
    <edge id=":TL2_13" function="internal">
        <lane id=":TL2_13_0" index="0" speed="11.36" length="9.94" shape="816.80,1.60 808.75,0.45 807.20,-0.48"/>
    </edge>
    <edge id=":TL2_29" function="internal">
        <lane id=":TL2_29_0" index="0" speed="12.28" length="16.28" shape="800.01,-1.58 796.55,-7.35 795.20,-16.80"/>
    </edge>
    <edge id=":TL2_30" function="internal">
        <lane id=":TL2_30_0" index="0" speed="11.36" length="19.74" shape="807.20,-0.48 803.00,-3.00 799.55,-8.75 798.40,-16.80"/>
    </edge>
    <edge id=":TL2_14" function="internal">
        <lane id=":TL2_14_0" index="0" speed="6.51" length="9.03" shape="811.20,-16.80 811.55,-14.35 812.60,-12.60 814.35,-11.55 816.80,-11.20"/>
    </edge>
    <edge id=":TL2_15" function="internal">
        <lane id=":TL2_15_0" index="0" speed="13.89" length="33.60" shape="811.20,-16.80 811.20,16.80"/>
        <lane id=":TL2_15_1" index="1" speed="13.89" length="33.60" shape="808.00,-16.80 808.00,16.80"/>
        <lane id=":TL2_15_2" index="2" speed="13.89" length="33.60" shape="804.80,-16.80 804.80,16.80"/>
        <lane id=":TL2_15_3" index="3" speed="13.89" length="33.60" shape="801.60,-16.80 801.60,16.80"/>
    </edge>
    <edge id=":TL2_19" function="internal">
        <lane id=":TL2_19_0" index="0" speed="11.36" length="9.01" shape="801.60,-16.80 800.45,-8.75 800.00,-8.00"/>
    </edge>
    <edge id=":TL2_31" function="internal">
        <lane id=":TL2_31_0" index="0" speed="11.36" length="20.67" shape="800.00,-8.00 797.00,-3.00 791.25,0.45 750.00,1.60"/>
    </edge>
    <edge id=":TL2_20" function="internal">
        <lane id=":TL2_20_0" index="0" speed="6.51" length="9.03" shape="750.00,-11.20 785.65,-11.55 787.40,-12.60 788.45,-14.35 788.80,-16.80"/>
    </edge>
    <edge id=":TL2_21" function="internal">
        <lane id=":TL2_21_0" index="0" speed="8.00" length="14.19" shape="750.00,-8.00 787.05,-8.55 789.80,-10.20 791.45,-12.95 792.00,-16.80"/>
    </edge>
    <edge id=":TL2_22" function="internal">
        <lane id=":TL2_22_0" index="0" speed="13.89" length="33.70" shape="750.00,-8.00 793.20,-8.50 800.00,-9.60 806.80,-10.70 816.80,-11.20"/>
        <lane id=":TL2_22_1" index="1" speed="13.89" length="33.70" shape="750.00,-8.00 816.80,-8.00"/>
        <lane id=":TL2_22_2" index="2" speed="13.89" length="33.70" shape="750.00,-4.80 816.80,-4.80"/>
        <lane id=":TL2_22_3" index="3" speed="13.89" length="33.70" shape="750.00,-4.80 793.20,-4.30 800.00,-3.20 806.80,-2.10 816.80,-1.60"/>
    </edge>
    <edge id=":TL2_26" function="internal">
        <lane id=":TL2_26_0" index="0" speed="12.28" length="18.56" shape="750.00,-4.80 792.65,-3.45 799.40,0.60 799.99,1.58"/>
    </edge>
    <edge id=":TL2_27" function="internal">
        <lane id=":TL2_27_0" index="0" speed="11.36" length="9.94" shape="750.00,-1.60 791.25,-0.45 792.80,0.48"/>
    </edge>
    <edge id=":TL2_32" function="internal">
        <lane id=":TL2_32_0" index="0" speed="12.28" length="16.28" shape="799.99,1.58 803.45,7.35 804.80,16.80"/>
    </edge>
    <edge id=":TL2_33" function="internal">
        <lane id=":TL2_33_0" index="0" speed="11.36" length="19.74" shape="792.80,0.48 797.00,3.00 800.45,8.75 801.60,16.80"/>
    </edge>
    <edge id=":TL3_0" function="internal">
        <lane id=":TL3_0_0" index="0" speed="6.51" length="9.03" shape="-11.20,-750.00 -11.55,-785.65 -12.60,-787.40 -14.35,-788.45 -16.80,-788.80"/>
    </edge>
    <edge id=":TL3_1" function="internal">
        <lane id=":TL3_1_0" index="0" speed="13.89" length="33.60" shape="-11.20,-750.00 -11.20,-816.80"/>
        <lane id=":TL3_1_1" index="1" speed="13.89" length="33.60" shape="-8.00,-750.00 -8.00,-816.80"/>
        <lane id=":TL3_1_2" index="2" speed="13.89" length="33.60" shape="-4.80,-750.00 -4.80,-816.80"/>
        <lane id=":TL3_1_3" index="3" speed="13.89" length="33.60" shape="-1.60,-750.00 -1.60,-816.80"/>
    </edge>
    <edge id=":TL3_5" function="internal">
        <lane id=":TL3_5_0" index="0" speed="11.36" length="9.01" shape="-1.60,-750.00 -0.45,-791.25 0.00,-792.00"/>
    </edge>
    <edge id=":TL3_28" function="internal">
        <lane id=":TL3_28_0" index="0" speed="11.36" length="20.67" shape="0.00,-792.00 3.00,-797.00 8.75,-800.45 16.80,-801.60"/>
    </edge>
    <edge id=":TL3_6" function="internal">
        <lane id=":TL3_6_0" index="0" speed="6.51" length="9.03" shape="16.80,-788.80 14.35,-788.45 12.60,-787.40 11.55,-785.65 11.20,-750.00"/>
    </edge>
    <edge id=":TL3_7" function="internal">
        <lane id=":TL3_7_0" index="0" speed="8.00" length="14.19" shape="16.80,-792.00 12.95,-791.45 10.20,-789.80 8.55,-787.05 8.00,-750.00"/>
    </edge>
    <edge id=":TL3_8" function="internal">
        <lane id=":TL3_8_0" index="0" speed="13.89" length="33.70" shape="16.80,-792.00 6.80,-791.50 0.00,-790.40 -6.80,-789.30 -16.80,-788.80"/>
        <lane id=":TL3_8_1" index="1" speed="13.89" length="33.70" shape="16.80,-792.00 -16.80,-792.00"/>
        <lane id=":TL3_8_2" index="2" speed="13.89" length="33.70" shape="16.80,-795.20 -16.80,-795.20"/>
        <lane id=":TL3_8_3" index="3" speed="13.89" length="33.70" shape="16.80,-795.20 6.80,-795.70 0.00,-796.80 -6.80,-797.90 -16.80,-798.40"/>
    </edge>
    <edge id=":TL3_12" function="internal">
        <lane id=":TL3_12_0" index="0" speed="12.28" length="18.56" shape="16.80,-795.20 7.35,-796.55 0.60,-800.60 0.01,-801.58"/>
    </edge>
    <edge id=":TL3_13" function="internal">
        <lane id=":TL3_13_0" index="0" speed="11.36" length="9.94" shape="16.80,-798.40 8.75,-799.55 7.20,-800.48"/>
    </edge>
    <edge id=":TL3_29" function="internal">
        <lane id=":TL3_29_0" index="0" speed="12.28" length="16.28" shape="0.01,-801.58 -3.45,-807.35 -4.80,-816.80"/>
    </edge>
    <edge id=":TL3_30" function="internal">
        <lane id=":TL3_30_0" index="0" speed="11.36" length="19.74" shape="7.20,-800.48 3.00,-803.00 -0.45,-808.75 -1.60,-816.80"/>
    </edge>
    <edge id=":TL3_14" function="internal">
        <lane id=":TL3_14_0" index="0" speed="6.51" length="9.03" shape="11.20,-816.80 11.55,-814.35 12.60,-812.60 14.35,-811.55 16.80,-811.20"/>
    </edge>
    <edge id=":TL3_15" function="internal">
        <lane id=":TL3_15_0" index="0" speed="13.89" length="33.60" shape="11.20,-816.80 11.20,-750.00"/>
        <lane id=":TL3_15_1" index="1" speed="13.89" length="33.60" shape="8.00,-816.80 8.00,-750.00"/>
        <lane id=":TL3_15_2" index="2" speed="13.89" length="33.60" shape="4.80,-816.80 4.80,-750.00"/>
        <lane id=":TL3_15_3" index="3" speed="13.89" length="33.60" shape="1.60,-816.80 1.60,-750.00"/>
    </edge>
    <edge id=":TL3_19" function="internal">
        <lane id=":TL3_19_0" index="0" speed="11.36" length="9.01" shape="1.60,-816.80 0.45,-808.75 -0.00,-808.00"/>
    </edge>
    <edge id=":TL3_31" function="internal">
        <lane id=":TL3_31_0" index="0" speed="11.36" length="20.67" shape="-0.00,-808.00 -3.00,-803.00 -8.75,-799.55 -16.80,-798.40"/>
    </edge>
    <edge id=":TL3_20" function="internal">
        <lane id=":TL3_20_0" index="0" speed="6.51" length="9.03" shape="-16.80,-811.20 -14.35,-811.55 -12.60,-812.60 -11.55,-814.35 -11.20,-816.80"/>
    </edge>
    <edge id=":TL3_21" function="internal">
        <lane id=":TL3_21_0" index="0" speed="8.00" length="14.19" shape="-16.80,-808.00 -12.95,-808.55 -10.20,-810.20 -8.55,-812.95 -8.00,-816.80"/>
    </edge>
    <edge id=":TL3_22" function="internal">
        <lane id=":TL3_22_0" index="0" speed="13.89" length="33.70" shape="-16.80,-808.00 -6.80,-808.50 0.00,-809.60 6.80,-810.70 16.80,-811.20"/>
        <lane id=":TL3_22_1" index="1" speed="13.89" length="33.70" shape="-16.80,-808.00 16.80,-808.00"/>
        <lane id=":TL3_22_2" index="2" speed="13.89" length="33.70" shape="-16.80,-804.80 16.80,-804.80"/>
        <lane id=":TL3_22_3" index="3" speed="13.89" length="33.70" shape="-16.80,-804.80 -6.80,-804.30 0.00,-803.20 6.80,-802.10 16.80,-801.60"/>
    </edge>
    <edge id=":TL3_26" function="internal">
        <lane id=":TL3_26_0" index="0" speed="12.28" length="18.56" shape="-16.80,-804.80 -7.35,-803.45 -0.60,-799.40 -0.01,-798.42"/>
    </edge>
    <edge id=":TL3_27" function="internal">
        <lane id=":TL3_27_0" index="0" speed="11.36" length="9.94" shape="-16.80,-801.60 -8.75,-800.45 -7.20,-799.52"/>
    </edge>
    <edge id=":TL3_32" function="internal">
        <lane id=":TL3_32_0" index="0" speed="12.28" length="16.28" shape="-0.01,-798.42 3.45,-792.65 4.80,-750.00"/>
    </edge>
    <edge id=":TL3_33" function="internal">
        <lane id=":TL3_33_0" index="0" speed="11.36" length="19.74" shape="-7.20,-799.52 -3.00,-797.00 0.45,-791.25 1.60,-750.00"/>
    </edge>
    <edge id=":TL4_0" function="internal">
        <lane id=":TL4_0_0" index="0" speed="6.51" length="9.03" shape="788.80,-750.00 788.45,-785.65 787.40,-787.40 785.65,-788.45 750.00,-788.80"/>
    </edge>
    <edge id=":TL4_1" function="internal">
        <lane id=":TL4_1_0" index="0" speed="13.89" length="33.60" shape="788.80,-750.00 788.80,-816.80"/>
        <lane id=":TL4_1_1" index="1" speed="13.89" length="33.60" shape="792.00,-750.00 792.00,-816.80"/>
        <lane id=":TL4_1_2" index="2" speed="13.89" length="33.60" shape="795.20,-750.00 795.20,-816.80"/>
        <lane id=":TL4_1_3" index="3" speed="13.89" length="33.60" shape="798.40,-750.00 798.40,-816.80"/>
    </edge>
    <edge id=":TL4_5" function="internal">
        <lane id=":TL4_5_0" index="0" speed="11.36" length="9.01" shape="798.40,-750.00 799.55,-791.25 800.00,-792.00"/>
    </edge>
    <edge id=":TL4_28" function="internal">
        <lane id=":TL4_28_0" index="0" speed="11.36" length="20.67" shape="800.00,-792.00 803.00,-797.00 808.75,-800.45 816.80,-801.60"/>
    </edge>
    <edge id=":TL4_6" function="internal">
        <lane id=":TL4_6_0" index="0" speed="6.51" length="9.03" shape="816.80,-788.80 814.35,-788.45 812.60,-787.40 811.55,-785.65 811.20,-750.00"/>
    </edge>
    <edge id=":TL4_7" function="internal">
        <lane id=":TL4_7_0" index="0" speed="8.00" length="14.19" shape="816.80,-792.00 812.95,-791.45 810.20,-789.80 808.55,-787.05 808.00,-750.00"/>
    </edge>
    <edge id=":TL4_8" function="internal">
        <lane id=":TL4_8_0" index="0" speed="13.89" length="33.70" shape="816.80,-792.00 806.80,-791.50 800.00,-790.40 793.20,-789.30 750.00,-788.80"/>
        <lane id=":TL4_8_1" index="1" speed="13.89" length="33.70" shape="816.80,-792.00 750.00,-792.00"/>
        <lane id=":TL4_8_2" index="2" speed="13.89" length="33.70" shape="816.80,-795.20 750.00,-795.20"/>
        <lane id=":TL4_8_3" index="3" speed="13.89" length="33.70" shape="816.80,-795.20 806.80,-795.70 800.00,-796.80 793.20,-797.90 750.00,-798.40"/>
    </edge>
    <edge id=":TL4_12" function="internal">
        <lane id=":TL4_12_0" index="0" speed="12.28" length="18.56" shape="816.80,-795.20 807.35,-796.55 800.60,-800.60 800.01,-801.58"/>
    </edge>
    <edge id=":TL4_13" function="internal">
        <lane id=":TL4_13_0" index="0" speed="11.36" length="9.94" shape="816.80,-798.40 808.75,-799.55 807.20,-800.48"/>
    </edge>
    <edge id=":TL4_29" function="internal">
        <lane id=":TL4_29_0" index="0" speed="12.28" length="16.28" shape="800.01,-801.58 796.55,-807.35 795.20,-816.80"/>
    </edge>
    <edge id=":TL4_30" function="internal">
        <lane id=":TL4_30_0" index="0" speed="11.36" length="19.74" shape="807.20,-800.48 803.00,-803.00 799.55,-808.75 798.40,-816.80"/>
    </edge>
    <edge id=":TL4_14" function="internal">
        <lane id=":TL4_14_0" index="0" speed="6.51" length="9.03" shape="811.20,-816.80 811.55,-814.35 812.60,-812.60 814.35,-811.55 816.80,-811.20"/>
    </edge>
    <edge id=":TL4_15" function="internal">
        <lane id=":TL4_15_0" index="0" speed="13.89" length="33.60" shape="811.20,-816.80 811.20,-750.00"/>
        <lane id=":TL4_15_1" index="1" speed="13.89" length="33.60" shape="808.00,-816.80 808.00,-750.00"/>
        <lane id=":TL4_15_2" index="2" speed="13.89" length="33.60" shape="804.80,-816.80 804.80,-750.00"/>
        <lane id=":TL4_15_3" index="3" speed="13.89" length="33.60" shape="801.60,-816.80 801.60,-750.00"/>
    </edge>
    <edge id=":TL4_19" function="internal">
        <lane id=":TL4_19_0" index="0" speed="11.36" length="9.01" shape="801.60,-816.80 800.45,-808.75 800.00,-808.00"/>
    </edge>
    <edge id=":TL4_31" function="internal">
        <lane id=":TL4_31_0" index="0" speed="11.36" length="20.67" shape="800.00,-808.00 797.00,-803.00 791.25,-799.55 750.00,-798.40"/>
    </edge>
    <edge id=":TL4_20" function="internal">
        <lane id=":TL4_20_0" index="0" speed="6.51" length="9.03" shape="750.00,-811.20 785.65,-811.55 787.40,-812.60 788.45,-814.35 788.80,-816.80"/>
    </edge>
    <edge id=":TL4_21" function="internal">
        <lane id=":TL4_21_0" index="0" speed="8.00" length="14.19" shape="750.00,-808.00 787.05,-808.55 789.80,-810.20 791.45,-812.95 792.00,-816.80"/>
    </edge>
    <edge id=":TL4_22" function="internal">
        <lane id=":TL4_22_0" index="0" speed="13.89" length="33.70" shape="750.00,-808.00 793.20,-808.50 800.00,-809.60 806.80,-810.70 816.80,-811.20"/>
        <lane id=":TL4_22_1" index="1" speed="13.89" length="33.70" shape="750.00,-808.00 816.80,-808.00"/>
        <lane id=":TL4_22_2" index="2" speed="13.89" length="33.70" shape="750.00,-804.80 816.80,-804.80"/>
        <lane id=":TL4_22_3" index="3" speed="13.89" length="33.70" shape="750.00,-804.80 793.20,-804.30 800.00,-803.20 806.80,-802.10 816.80,-801.60"/>
    </edge>
    <edge id=":TL4_26" function="internal">
        <lane id=":TL4_26_0" index="0" speed="12.28" length="18.56" shape="750.00,-804.80 792.65,-803.45 799.40,-799.40 799.99,-798.42"/>
    </edge>
    <edge id=":TL4_27" function="internal">
        <lane id=":TL4_27_0" index="0" speed="11.36" length="9.94" shape="750.00,-801.60 791.25,-800.45 792.80,-799.52"/>
    </edge>
    <edge id=":TL4_32" function="internal">
        <lane id=":TL4_32_0" index="0" speed="12.28" length="16.28" shape="799.99,-798.42 803.45,-792.65 804.80,-750.00"/>
    </edge>
    <edge id=":TL4_33" function="internal">
        <lane id=":TL4_33_0" index="0" speed="11.36" length="19.74" shape="792.80,-799.52 797.00,-797.00 800.45,-791.25 801.60,-750.00"/>
    </edge>

    <edge id="A0" from="TL1" to="N1" priority="-1" length="750.00">
        <lane id="A0_0" index="0" speed="13.89" length="750.00" shape="11.20,16.80 11.20,800.00"/>
        <lane id="A0_1" index="1" speed="13.89" length="750.00" shape="8.00,16.80 8.00,800.00"/>
        <lane id="A0_2" index="2" speed="13.89" length="750.00" shape="4.80,16.80 4.80,800.00"/>
        <lane id="A0_3" index="3" speed="13.89" length="750.00" shape="1.60,16.80 1.60,800.00"/>
    </edge>
    <edge id="A1" from="N1" to="TL1" priority="-1" length="750.00">
        <lane id="A1_0" index="0" speed="13.89" length="750.00" shape="-11.20,800.00 -11.20,16.80"/>
        <lane id="A1_1" index="1" speed="13.89" length="750.00" shape="-8.00,800.00 -8.00,16.80"/>
        <lane id="A1_2" index="2" speed="13.89" length="750.00" shape="-4.80,800.00 -4.80,16.80"/>
        <lane id="A1_3" index="3" speed="13.89" length="750.00" shape="-1.60,800.00 -1.60,16.80"/>
    </edge>
    <edge id="B0" from="TL2" to="N2" priority="-1">
        <lane id="B0_0" index="0" speed="13.89" length="750.00" shape="811.20,16.80 811.20,800.00"/>
        <lane id="B0_1" index="1" speed="13.89" length="750.00" shape="808.00,16.80 808.00,800.00"/>
        <lane id="B0_2" index="2" speed="13.89" length="750.00" shape="804.80,16.80 804.80,800.00"/>
        <lane id="B0_3" index="3" speed="13.89" length="750.00" shape="801.60,16.80 801.60,800.00"/>
    </edge>
    <edge id="B1" from="N2" to="TL2" priority="-1">
        <lane id="B1_0" index="0" speed="13.89" length="750.00" shape="788.80,800.00 788.80,16.80"/>
        <lane id="B1_1" index="1" speed="13.89" length="750.00" shape="792.00,800.00 792.00,16.80"/>
        <lane id="B1_2" index="2" speed="13.89" length="750.00" shape="795.20,800.00 795.20,16.80"/>
        <lane id="B1_3" index="3" speed="13.89" length="750.00" shape="798.40,800.00 798.40,16.80"/>
    </edge>
    <edge id="C0" from="TL1" to="W1" priority="-1" length="750.00">
        <lane id="C0_0" index="0" speed="13.89" length="750.00" shape="-16.80,11.20 -800.00,11.20"/>
        <lane id="C0_1" index="1" speed="13.89" length="750.00" shape="-16.80,8.00 -800.00,8.00"/>
        <lane id="C0_2" index="2" speed="13.89" length="750.00" shape="-16.80,4.80 -800.00,4.80"/>
        <lane id="C0_3" index="3" speed="13.89" length="750.00" shape="-16.80,1.60 -800.00,1.60"/>
    </edge>
    <edge id="C1" from="W1" to="TL1" priority="-1" length="750.00">
        <lane id="C1_0" index="0" speed="13.89" length="750.00" shape="-800.00,-11.20 -16.80,-11.20"/>
        <lane id="C1_1" index="1" speed="13.89" length="750.00" shape="-800.00,-8.00 -16.80,-8.00"/>
        <lane id="C1_2" index="2" speed="13.89" length="750.00" shape="-800.00,-4.80 -16.80,-4.80"/>
        <lane id="C1_3" index="3" speed="13.89" length="750.00" shape="-800.00,-1.60 -16.80,-1.60"/>
    </edge>
    <edge id="D0" from="TL2" to="TL1" priority="-1" length="750.00">
        <lane id="D0_0" index="0" speed="13.89" length="750.00" shape="750.00,11.20 16.80,11.20"/>
        <lane id="D0_1" index="1" speed="13.89" length="750.00" shape="750.00,8.00 16.80,8.00"/>
        <lane id="D0_2" index="2" speed="13.89" length="750.00" shape="750.00,4.80 16.80,4.80"/>
        <lane id="D0_3" index="3" speed="13.89" length="750.00" shape="750.00,1.60 16.80,1.60"/>
    </edge>
    <edge id="D1" from="TL1" to="TL2" priority="-1" length="750.00">
        <lane id="D1_0" index="0" speed="13.89" length="750.00" shape="16.80,-11.20 750.00,-11.20"/>
        <lane id="D1_1" index="1" speed="13.89" length="750.00" shape="16.80,-8.00 750.00,-8.00"/>
        <lane id="D1_2" index="2" speed="13.89" length="750.00" shape="16.80,-4.80 750.00,-4.80"/>
        <lane id="D1_3" index="3" speed="13.89" length="750.00" shape="16.80,-1.60 750.00,-1.60"/>
    </edge>
    <edge id="E0" from="E1" to="TL2" priority="-1">
        <lane id="E0_0" index="0" speed="13.89" length="750.00" shape="1600.00,11.20 816.80,11.20"/>
        <lane id="E0_1" index="1" speed="13.89" length="750.00" shape="1600.00,8.00 816.80,8.00"/>
        <lane id="E0_2" index="2" speed="13.89" length="750.00" shape="1600.00,4.80 816.80,4.80"/>
        <lane id="E0_3" index="3" speed="13.89" length="750.00" shape="1600.00,1.60 816.80,1.60"/>
    </edge>
    <edge id="E1" from="TL2" to="E1" priority="-1">
        <lane id="E1_0" index="0" speed="13.89" length="750.00" shape="816.80,-11.20 1600.00,-11.20"/>
        <lane id="E1_1" index="1" speed="13.89" length="750.00" shape="816.80,-8.00 1600.00,-8.00"/>
        <lane id="E1_2" index="2" speed="13.89" length="750.00" shape="816.80,-4.80 1600.00,-4.80"/>
        <lane id="E1_3" index="3" speed="13.89" length="750.00" shape="816.80,-1.60 1600.00,-1.60"/>
    </edge>
    <edge id="F0" from="TL3" to="TL1" priority="-1" length="750.00">
        <lane id="F0_0" index="0" speed="13.89" length="750.00" shape="11.20,-750.00 11.20,-16.80"/>
        <lane id="F0_1" index="1" speed="13.89" length="750.00" shape="8.00,-750.00 8.00,-16.80"/>
        <lane id="F0_2" index="2" speed="13.89" length="750.00" shape="4.80,-750.00 4.80,-16.80"/>
        <lane id="F0_3" index="3" speed="13.89" length="750.00" shape="1.60,-750.00 1.60,-16.80"/>
    </edge>
    <edge id="F1" from="TL1" to="TL3" priority="-1" length="750.00">
        <lane id="F1_0" index="0" speed="13.89" length="750.00" shape="-11.20,-16.80 -11.20,-750.00"/>
        <lane id="F1_1" index="1" speed="13.89" length="750.00" shape="-8.00,-16.80 -8.00,-750.00"/>
        <lane id="F1_2" index="2" speed="13.89" length="750.00" shape="-4.80,-16.80 -4.80,-750.00"/>
        <lane id="F1_3" index="3" speed="13.89" length="750.00" shape="-1.60,-16.80 -1.60,-750.00"/>
    </edge>
    <edge id="G0" from="TL4" to="TL2" priority="-1">
        <lane id="G0_0" index="0" speed="13.89" length="750.00" shape="811.20,-750.00 811.20,-16.80"/>
        <lane id="G0_1" index="1" speed="13.89" length="750.00" shape="808.00,-750.00 808.00,-16.80"/>
        <lane id="G0_2" index="2" speed="13.89" length="750.00" shape="804.80,-750.00 804.80,-16.80"/>
        <lane id="G0_3" index="3" speed="13.89" length="750.00" shape="801.60,-750.00 801.60,-16.80"/>
    </edge>
    <edge id="G1" from="TL2" to="TL4" priority="-1">
        <lane id="G1_0" index="0" speed="13.89" length="750.00" shape="788.80,-16.80 788.80,-750.00"/>
        <lane id="G1_1" index="1" speed="13.89" length="750.00" shape="792.00,-16.80 792.00,-750.00"/>
        <lane id="G1_2" index="2" speed="13.89" length="750.00" shape="795.20,-16.80 795.20,-750.00"/>
        <lane id="G1_3" index="3" speed="13.89" length="750.00" shape="798.40,-16.80 798.40,-750.00"/>
    </edge>
    <edge id="H0" from="TL3" to="W2" priority="-1">
        <lane id="H0_0" index="0" speed="13.89" length="750.00" shape="-16.80,-788.80 -800.00,-788.80"/>
        <lane id="H0_1" index="1" speed="13.89" length="750.00" shape="-16.80,-792.00 -800.00,-792.00"/>
        <lane id="H0_2" index="2" speed="13.89" length="750.00" shape="-16.80,-795.20 -800.00,-795.20"/>
        <lane id="H0_3" index="3" speed="13.89" length="750.00" shape="-16.80,-798.40 -800.00,-798.40"/>
    </edge>
    <edge id="H1" from="W2" to="TL3" priority="-1">
        <lane id="H1_0" index="0" speed="13.89" length="750.00" shape="-800.00,-811.20 -16.80,-811.20"/>
        <lane id="H1_1" index="1" speed="13.89" length="750.00" shape="-800.00,-808.00 -16.80,-808.00"/>
        <lane id="H1_2" index="2" speed="13.89" length="750.00" shape="-800.00,-804.80 -16.80,-804.80"/>
        <lane id="H1_3" index="3" speed="13.89" length="750.00" shape="-800.00,-801.60 -16.80,-801.60"/>
    </edge>
    <edge id="I0" from="TL4" to="TL3" priority="-1">
        <lane id="I0_0" index="0" speed="13.89" length="750.00" shape="750.00,-788.80 16.80,-788.80"/>
        <lane id="I0_1" index="1" speed="13.89" length="750.00" shape="750.00,-792.00 16.80,-792.00"/>
        <lane id="I0_2" index="2" speed="13.89" length="750.00" shape="750.00,-795.20 16.80,-795.20"/>
        <lane id="I0_3" index="3" speed="13.89" length="750.00" shape="750.00,-798.40 16.80,-798.40"/>
    </edge>
    <edge id="I1" from="TL3" to="TL4" priority="-1">
        <lane id="I1_0" index="0" speed="13.89" length="750.00" shape="16.80,-811.20 750.00,-811.20"/>
        <lane id="I1_1" index="1" speed="13.89" length="750.00" shape="16.80,-808.00 750.00,-808.00"/>
        <lane id="I1_2" index="2" speed="13.89" length="750.00" shape="16.80,-804.80 750.00,-804.80"/>
        <lane id="I1_3" index="3" speed="13.89" length="750.00" shape="16.80,-801.60 750.00,-801.60"/>
    </edge>
    <edge id="J0" from="E2" to="TL4" priority="-1">
        <lane id="J0_0" index="0" speed="13.89" length="750.00" shape="1600.00,-788.80 816.80,-788.80"/>
        <lane id="J0_1" index="1" speed="13.89" length="750.00" shape="1600.00,-792.00 816.80,-792.00"/>
        <lane id="J0_2" index="2" speed="13.89" length="750.00" shape="1600.00,-795.20 816.80,-795.20"/>