<?xml version="1.0" encoding="UTF-8"?>

<!-- generated on 07/13/21 20:40:11 by Eclipse SUMO netedit Version 1.8.0
<configuration xmlns:xsi="http://www.w3.org/2001/XMLSchema-instance" xsi:noNamespaceSchemaLocation="http://sumo.dlr.de/xsd/netconvertConfiguration.xsd">

    <input>
        <sumo-net-file value="C:\Users\hp\Desktop\lastedit1.net.xml"/>
    </input>

    <output>
        <output-file value="C:\Users\hp\Desktop\lastedit1.net.xml"/>
    </output>

    <processing>
        <geometry.min-radius.fix.railways value="false"/>
        <geometry.max-grade.fix value="false"/>
        <offset.disable-normalization value="true"/>
        <lefthand value="false"/>
    </processing>

    <junctions>
        <no-turnarounds value="true"/>
        <junctions.corner-detail value="5"/>
        <junctions.limit-turn-speed value="5.5"/>
        <rectangular-lane-cut value="false"/>
    </junctions>

    <pedestrian>
        <walkingareas value="false"/>
    </pedestrian>

    <report>
        <aggregate-warnings value="5"/>
    </report>

</configuration>
-->

<net version="1.6" junctionCornerDetail="5" limitTurnSpeed="5.50" xmlns:xsi="http://www.w3.org/2001/XMLSchema-instance" xsi:noNamespaceSchemaLocation="http://sumo.dlr.de/xsd/net_file.xsd">

    <location netOffset="0.00,0.00" convBoundary="-800.00,-1600.00,1600.00,800.00" origBoundary="-10000000000.00,-10000000000.00,10000000000.00,10000000000.00" projParameter="!"/>

    <edge id=":TL1_0" function="internal">
        <lane id=":TL1_0_0" index="0" speed="6.51" length="9.03" shape="-11.20,16.80 -11.55,14.35 -12.60,12.60 -14.35,11.55 -16.80,11.20"/>
    </edge>
    <edge id=":TL1_1" function="internal">
        <lane id=":TL1_1_0" index="0" speed="13.89" length="33.60" shape="-11.20,16.80 -11.20,-16.80"/>
        <lane id=":TL1_1_1" index="1" speed="13.89" length="33.60" shape="-8.00,16.80 -8.00,-16.80"/>
        <lane id=":TL1_1_2" index="2" speed="13.89" length="33.60" shape="-4.80,16.80 -4.80,-16.80"/>
    </edge>
    <edge id=":TL1_4" function="internal">
        <lane id=":TL1_4_0" index="0" speed="11.36" length="15.07" shape="-1.60,16.80 -0.45,8.75 3.00,3.00 3.20,2.88"/>
    </edge>
    <edge id=":TL1_20" function="internal">
        <lane id=":TL1_20_0" index="0" speed="11.36" length="14.60" shape="3.20,2.88 8.75,-0.45 16.80,-1.60"/>
    </edge>
    <edge id=":TL1_5" function="internal">
        <lane id=":TL1_5_0" index="0" speed="6.51" length="9.03" shape="16.80,11.20 14.35,11.55 12.60,12.60 11.55,14.35 11.20,16.80"/>
    </edge>
    <edge id=":TL1_6" function="internal">
        <lane id=":TL1_6_0" index="0" speed="13.89" length="33.60" shape="16.80,11.20 -16.80,11.20"/>
        <lane id=":TL1_6_1" index="1" speed="13.89" length="33.60" shape="16.80,8.00 -16.80,8.00"/>
        <lane id=":TL1_6_2" index="2" speed="13.89" length="33.60" shape="16.80,4.80 -16.80,4.80"/>
    </edge>
    <edge id=":TL1_9" function="internal">
        <lane id=":TL1_9_0" index="0" speed="11.36" length="15.07" shape="16.80,1.60 8.75,0.45 3.00,-3.00 2.88,-3.20"/>
    </edge>
    <edge id=":TL1_21" function="internal">
        <lane id=":TL1_21_0" index="0" speed="11.36" length="14.60" shape="2.88,-3.20 -0.45,-8.75 -1.60,-16.80"/>
    </edge>
    <edge id=":TL1_10" function="internal">
        <lane id=":TL1_10_0" index="0" speed="6.51" length="9.03" shape="11.20,-16.80 11.55,-14.35 12.60,-12.60 14.35,-11.55 16.80,-11.20"/>
    </edge>
    <edge id=":TL1_11" function="internal">
        <lane id=":TL1_11_0" index="0" speed="13.89" length="33.60" shape="11.20,-16.80 11.20,16.80"/>
        <lane id=":TL1_11_1" index="1" speed="13.89" length="33.60" shape="8.00,-16.80 8.00,16.80"/>
        <lane id=":TL1_11_2" index="2" speed="13.89" length="33.60" shape="4.80,-16.80 4.80,16.80"/>
    </edge>
    <edge id=":TL1_14" function="internal">
        <lane id=":TL1_14_0" index="0" speed="11.36" length="15.07" shape="1.60,-16.80 0.45,-8.75 -3.00,-3.00 -3.20,-2.88"/>
    </edge>
    <edge id=":TL1_22" function="internal">
        <lane id=":TL1_22_0" index="0" speed="11.36" length="14.60" shape="-3.20,-2.88 -8.75,0.45 -16.80,1.60"/>
    </edge>
    <edge id=":TL1_15" function="internal">
        <lane id=":TL1_15_0" index="0" speed="6.51" length="9.03" shape="-16.80,-11.20 -14.35,-11.55 -12.60,-12.60 -11.55,-14.35 -11.20,-16.80"/>
    </edge>
    <edge id=":TL1_16" function="internal">
        <lane id=":TL1_16_0" index="0" speed="13.89" length="33.60" shape="-16.80,-11.20 16.80,-11.20"/>
        <lane id=":TL1_16_1" index="1" speed="13.89" length="33.60" shape="-16.80,-8.00 16.80,-8.00"/>
        <lane id=":TL1_16_2" index="2" speed="13.89" length="33.60" shape="-16.80,-4.80 16.80,-4.80"/>
    </edge>
    <edge id=":TL1_19" function="internal">
        <lane id=":TL1_19_0" index="0" speed="11.36" length="15.07" shape="-16.80,-1.60 -8.75,-0.45 -3.00,3.00 -2.88,3.20"/>
    </edge>
    <edge id=":TL1_23" function="internal">
        <lane id=":TL1_23_0" index="0" speed="11.36" length="14.60" shape="-2.88,3.20 0.45,8.75 1.60,16.80"/>
    </edge>
    <edge id=":TL2_0" function="internal">
        <lane id=":TL2_0_0" index="0" speed="6.51" length="9.03" shape="788.80,16.80 788.45,14.35 787.40,12.60 785.65,11.55 783.20,11.20"/>
    </edge>
    <edge id=":TL2_1" function="internal">
        <lane id=":TL2_1_0" index="0" speed="13.89" length="33.60" shape="788.80,16.80 788.80,-16.80"/>
        <lane id=":TL2_1_1" index="1" speed="13.89" length="33.60" shape="792.00,16.80 792.00,-16.80"/>
        <lane id=":TL2_1_2" index="2" speed="13.89" length="33.60" shape="795.20,16.80 795.20,-16.80"/>
    </edge>
    <edge id=":TL2_4" function="internal">
        <lane id=":TL2_4_0" index="0" speed="11.36" length="15.07" shape="798.40,16.80 799.55,8.75 803.00,3.00 803.20,2.88"/>
    </edge>
    <edge id=":TL2_20" function="internal">
        <lane id=":TL2_20_0" index="0" speed="11.36" length="14.60" shape="803.20,2.88 808.75,-0.45 816.80,-1.60"/>
    </edge>
    <edge id=":TL2_5" function="internal">
        <lane id=":TL2_5_0" index="0" speed="6.51" length="9.03" shape="816.80,11.20 814.35,11.55 812.60,12.60 811.55,14.35 811.20,16.80"/>
    </edge>
    <edge id=":TL2_6" function="internal">
        <lane id=":TL2_6_0" index="0" speed="13.89" length="33.60" shape="816.80,11.20 783.20,11.20"/>
        <lane id=":TL2_6_1" index="1" speed="13.89" length="33.60" shape="816.80,8.00 783.20,8.00"/>
        <lane id=":TL2_6_2" index="2" speed="13.89" length="33.60" shape="816.80,4.80 783.20,4.80"/>
    </edge>
    <edge id=":TL2_9" function="internal">
        <lane id=":TL2_9_0" index="0" speed="11.36" length="15.07" shape="816.80,1.60 808.75,0.45 803.00,-3.00 802.88,-3.20"/>
    </edge>
    <edge id=":TL2_21" function="internal">
        <lane id=":TL2_21_0" index="0" speed="11.36" length="14.60" shape="802.88,-3.20 799.55,-8.75 798.40,-16.80"/>
    </edge>
    <edge id=":TL2_10" function="internal">
        <lane id=":TL2_10_0" index="0" speed="6.51" length="9.03" shape="811.20,-16.80 811.55,-14.35 812.60,-12.60 814.35,-11.55 816.80,-11.20"/>
    </edge>
    <edge id=":TL2_11" function="internal">
        <lane id=":TL2_11_0" index="0" speed="13.89" length="33.60" shape="811.20,-16.80 811.20,16.80"/>
        <lane id=":TL2_11_1" index="1" speed="13.89" length="33.60" shape="808.00,-16.80 808.00,16.80"/>
        <lane id=":TL2_11_2" index="2" speed="13.89" length="33.60" shape="804.80,-16.80 804.80,16.80"/>
    </edge>
    <edge id=":TL2_14" function="internal">
        <lane id=":TL2_14_0" index="0" speed="11.36" length="15.07" shape="801.60,-16.80 800.45,-8.75 797.00,-3.00 796.80,-2.88"/>
    </edge>
    <edge id=":TL2_22" function="internal">
        <lane id=":TL2_22_0" index="0" speed="11.36" length="14.60" shape="796.80,-2.88 791.25,0.45 783.20,1.60"/>
    </edge>
    <edge id=":TL2_15" function="internal">
        <lane id=":TL2_15_0" index="0" speed="6.51" length="9.03" shape="783.20,-11.20 785.65,-11.55 787.40,-12.60 788.45,-14.35 788.80,-16.80"/>
    </edge>
    <edge id=":TL2_16" function="internal">
        <lane id=":TL2_16_0" index="0" speed="13.89" length="33.60" shape="783.20,-11.20 816.80,-11.20"/>
        <lane id=":TL2_16_1" index="1" speed="13.89" length="33.60" shape="783.20,-8.00 816.80,-8.00"/>
        <lane id=":TL2_16_2" index="2" speed="13.89" length="33.60" shape="783.20,-4.80 816.80,-4.80"/>
    </edge>
    <edge id=":TL2_19" function="internal">
        <lane id=":TL2_19_0" index="0" speed="11.36" length="15.07" shape="783.20,-1.60 791.25,-0.45 797.00,3.00 797.12,3.20"/>
    </edge>
    <edge id=":TL2_23" function="internal">
        <lane id=":TL2_23_0" index="0" speed="11.36" length="14.60" shape="797.12,3.20 800.45,8.75 801.60,16.80"/>
    </edge>
    <edge id=":TL3_0" function="internal">
        <lane id=":TL3_0_0" index="0" speed="6.51" length="9.03" shape="-11.20,-783.20 -11.55,-785.65 -12.60,-787.40 -14.35,-788.45 -16.80,-788.80"/>
    </edge>
    <edge id=":TL3_1" function="internal">
        <lane id=":TL3_1_0" index="0" speed="13.89" length="33.60" shape="-11.20,-783.20 -11.20,-816.80"/>
        <lane id=":TL3_1_1" index="1" speed="13.89" length="33.60" shape="-8.00,-783.20 -8.00,-816.80"/>
        <lane id=":TL3_1_2" index="2" speed="13.89" length="33.60" shape="-4.80,-783.20 -4.80,-816.80"/>
    </edge>
    <edge id=":TL3_4" function="internal">
        <lane id=":TL3_4_0" index="0" speed="11.36" length="15.07" shape="-1.60,-783.20 -0.45,-791.25 3.00,-797.00 3.20,-797.12"/>
    </edge>
    <edge id=":TL3_20" function="internal">
        <lane id=":TL3_20_0" index="0" speed="11.36" length="14.60" shape="3.20,-797.12 8.75,-800.45 16.80,-801.60"/>
    </edge>
    <edge id=":TL3_5" function="internal">
        <lane id=":TL3_5_0" index="0" speed="6.51" length="9.03" shape="16.80,-788.80 14.35,-788.45 12.60,-787.40 11.55,-785.65 11.20,-783.20"/>
    </edge>
    <edge id=":TL3_6" function="internal">
        <lane id=":TL3_6_0" index="0" speed="13.89" length="33.60" shape="16.80,-788.80 -16.80,-788.80"/>
        <lane id=":TL3_6_1" index="1" speed="13.89" length="33.60" shape="16.80,-792.00 -16.80,-792.00"/>
        <lane id=":TL3_6_2" index="2" speed="13.89" length="33.60" shape="16.80,-795.20 -16.80,-795.20"/>
    </edge>
    <edge id=":TL3_9" function="internal">
        <lane id=":TL3_9_0" index="0" speed="11.36" length="15.07" shape="16.80,-798.40 8.75,-799.55 3.00,-803.00 2.88,-803.20"/>
    </edge>
    <edge id=":TL3_21" function="internal">
        <lane id=":TL3_21_0" index="0" speed="11.36" length="14.60" shape="2.88,-803.20 -0.45,-808.75 -1.60,-816.80"/>
    </edge>
    <edge id=":TL3_10" function="internal">
        <lane id=":TL3_10_0" index="0" speed="6.51" length="9.03" shape="11.20,-816.80 11.55,-814.35 12.60,-812.60 14.35,-811.55 16.80,-811.20"/>
    </edge>
    <edge id=":TL3_11" function="internal">
        <lane id=":TL3_11_0" index="0" speed="13.89" length="33.60" shape="11.20,-816.80 11.20,-783.20"/>
        <lane id=":TL3_11_1" index="1" speed="13.89" length="33.60" shape="8.00,-816.80 8.00,-783.20"/>
        <lane id=":TL3_11_2" index="2" speed="13.89" length="33.60" shape="4.80,-816.80 4.80,-783.20"/>
    </edge>
    <edge id=":TL3_14" function="internal">
        <lane id=":TL3_14_0" index="0" speed="11.36" length="15.07" shape="1.60,-816.80 0.45,-808.75 -3.00,-803.00 -3.20,-802.88"/>
    </edge>
    <edge id=":TL3_22" function="internal">
        <lane id=":TL3_22_0" index="0" speed="11.36" length="14.60" shape="-3.20,-802.88 -8.75,-799.55 -16.80,-798.40"/>
    </edge>
    <edge id=":TL3_15" function="internal">
        <lane id=":TL3_15_0" index="0" speed="6.51" length="9.03" shape="-16.80,-811.20 -14.35,-811.55 -12.60,-812.60 -11.55,-814.35 -11.20,-816.80"/>
    </edge>
    <edge id=":TL3_16" function="internal">
        <lane id=":TL3_16_0" index="0" speed="13.89" length="33.60" shape="-16.80,-811.20 16.80,-811.20"/>
        <lane id=":TL3_16_1" index="1" speed="13.89" length="33.60" shape="-16.80,-808.00 16.80,-808.00"/>
        <lane id=":TL3_16_2" index="2" speed="13.89" length="33.60" shape="-16.80,-804.80 16.80,-804.80"/>
    </edge>
    <edge id=":TL3_19" function="internal">
        <lane id=":TL3_19_0" index="0" speed="11.36" length="15.07" shape="-16.80,-801.60 -8.75,-800.45 -3.00,-797.00 -2.88,-796.80"/>
    </edge>
    <edge id=":TL3_23" function="internal">
        <lane id=":TL3_23_0" index="0" speed="11.36" length="14.60" shape="-2.88,-796.80 0.45,-791.25 1.60,-783.20"/>
    </edge>
    <edge id=":TL4_0" function="internal">
        <lane id=":TL4_0_0" index="0" speed="6.51" length="9.03" shape="788.80,-783.20 788.45,-785.65 787.40,-787.40 785.65,-788.45 783.20,-788.80"/>
    </edge>
    <edge id=":TL4_1" function="internal">
        <lane id=":TL4_1_0" index="0" speed="13.89" length="33.60" shape="788.80,-783.20 788.80,-816.80"/>
        <lane id=":TL4_1_1" index="1" speed="13.89" length="33.60" shape="792.00,-783.20 792.00,-816.80"/>
        <lane id=":TL4_1_2" index="2" speed="13.89" length="33.60" shape="795.20,-783.20 795.20,-816.80"/>
        <lane id=":TL4_1_3" index="3" speed="13.89" length="33.60" shape="798.40,-783.20 798.40,-816.80"/>
    </edge>
    <edge id=":TL4_5" function="internal">
        <lane id=":TL4_5_0" index="0" speed="11.36" length="15.07" shape="798.40,-783.20 799.55,-791.25 803.00,-797.00 803.20,-797.12"/>
    </edge>
    <edge id=":TL4_21" function="internal">
        <lane id=":TL4_21_0" index="0" speed="11.36" length="14.60" shape="803.20,-797.12 808.75,-800.45 816.80,-801.60"/>
    </edge>
    <edge id=":TL4_6" function="internal">
        <lane id=":TL4_6_0" index="0" speed="6.51" length="9.03" shape="816.80,-788.80 814.35,-788.45 812.60,-787.40 811.55,-785.65 811.20,-783.20"/>
    </edge>
    <edge id=":TL4_7" function="internal">
        <lane id=":TL4_7_0" index="0" speed="13.89" length="33.60" shape="816.80,-788.80 783.20,-788.80"/>
        <lane id=":TL4_7_1" index="1" speed="13.89" length="33.60" shape="816.80,-792.00 783.20,-792.00"/>
        <lane id=":TL4_7_2" index="2" speed="13.89" length="33.60" shape="816.80,-795.20 783.20,-795.20"/>
    </edge>
    <edge id=":TL4_10" function="internal">
        <lane id=":TL4_10_0" index="0" speed="11.36" length="15.07" shape="816.80,-798.40 808.75,-799.55 803.00,-803.00 802.88,-803.20"/>
    </edge>
    <edge id=":TL4_22" function="internal">
        <lane id=":TL4_22_0" index="0" speed="11.36" length="14.60" shape="802.88,-803.20 799.55,-808.75 798.40,-816.80"/>
    </edge>
    <edge id=":TL4_11" function="internal">
        <lane id=":TL4_11_0" index="0" speed="6.51" length="9.03" shape="811.20,-816.80 811.55,-814.35 812.60,-812.60 814.35,-811.55 816.80,-811.20"/>
    </edge>
    <edge id=":TL4_12" function="internal">
        <lane id=":TL4_12_0" index="0" speed="13.89" length="33.60" shape="811.20,-816.80 811.20,-783.20"/>
        <lane id=":TL4_12_1" index="1" speed="13.89" length="33.60" shape="808.00,-816.80 808.00,-783.20"/>
        <lane id=":TL4_12_2" index="2" speed="13.89" length="33.60" shape="804.80,-816.80 804.80,-783.20"/>
    </edge>
    <edge id=":TL4_15" function="internal">
        <lane id=":TL4_15_0" index="0" speed="11.36" length="9.01" shape="801.60,-816.80 800.45,-808.75 800.00,-808.00"/>
    </edge>
    <edge id=":TL4_23" function="internal">
        <lane id=":TL4_23_0" index="0" speed="11.36" length="20.67" shape="800.00,-808.00 797.00,-803.00 791.25,-799.55 783.20,-798.40"/>
    </edge>
    <edge id=":TL4_16" function="internal">
        <lane id=":TL4_16_0" index="0" speed="6.51" length="9.03" shape="783.20,-811.20 785.65,-811.55 787.40,-812.60 788.45,-814.35 788.80,-816.80"/>
    </edge>
    <edge id=":TL4_17" function="internal">
        <lane id=":TL4_17_0" index="0" speed="13.89" length="33.60" shape="783.20,-811.20 816.80,-811.20"/>
        <lane id=":TL4_17_1" index="1" speed="13.89" length="33.60" shape="783.20,-808.00 816.80,-808.00"/>
        <lane id=":TL4_17_2" index="2" speed="13.89" length="33.60" shape="783.20,-804.80 816.80,-804.80"/>
    </edge>
    <edge id=":TL4_20" function="internal">
        <lane id=":TL4_20_0" index="0" speed="11.36" length="15.07" shape="783.20,-801.60 791.25,-800.45 797.00,-797.00 797.12,-796.80"/>
    </edge>
    <edge id=":TL4_24" function="internal">
        <lane id=":TL4_24_0" index="0" speed="11.36" length="14.60" shape="797.12,-796.80 800.45,-791.25 801.60,-783.20"/>
    </edge>

    <edge id="le_tl4" from="LE" to="TL4" priority="-1">
        <lane id="le_tl4_0" index="0" speed="13.89" length="783.20" shape="1600.00,-788.80 816.80,-788.80"/>
        <lane id="le_tl4_1" index="1" speed="13.89" length="783.20" shape="1600.00,-792.00 816.80,-792.00"/>
        <lane id="le_tl4_2" index="2" speed="13.89" length="783.20" shape="1600.00,-795.20 816.80,-795.20"/>
        <lane id="le_tl4_3" index="3" speed="13.89" length="783.20" shape="1600.00,-798.40 816.80,-798.40"/>
    </edge>
    <edge id="ln_tl1" from="LN" to="TL1" priority="-1" length="750.00">
        <lane id="ln_tl1_0" index="0" speed="13.89" length="750.00" shape="-11.20,800.00 -11.20,16.80"/>
        <lane id="ln_tl1_1" index="1" speed="13.89" length="750.00" shape="-8.00,800.00 -8.00,16.80"/>
        <lane id="ln_tl1_2" index="2" speed="13.89" length="750.00" shape="-4.80,800.00 -4.80,16.80"/>
        <lane id="ln_tl1_3" index="3" speed="13.89" length="750.00" shape="-1.60,800.00 -1.60,16.80"/>
    </edge>
    <edge id="ls_tl3" from="LS" to="TL3" priority="-1">
        <lane id="ls_tl3_0" index="0" speed="13.89" length="783.20" shape="11.20,-1600.00 11.20,-816.80"/>
        <lane id="ls_tl3_1" index="1" speed="13.89" length="783.20" shape="8.00,-1600.00 8.00,-816.80"/>
        <lane id="ls_tl3_2" index="2" speed="13.89" length="783.20" shape="4.80,-1600.00 4.80,-816.80"/>
        <lane id="ls_tl3_3" index="3" speed="13.89" length="783.20" shape="1.60,-1600.00 1.60,-816.80"/>
    </edge>
    <edge id="lw_tl3" from="LW" to="TL3" priority="-1">
        <lane id="lw_tl3_0" index="0" speed="13.89" length="783.20" shape="-800.00,-811.20 -16.80,-811.20"/>
        <lane id="lw_tl3_1" index="1" speed="13.89" length="783.20" shape="-800.00,-808.00 -16.80,-808.00"/>
        <lane id="lw_tl3_2" index="2" speed="13.89" length="783.20" shape="-800.00,-804.80 -16.80,-804.80"/>
        <lane id="lw_tl3_3" index="3" speed="13.89" length="783.20" shape="-800.00,-801.60 -16.80,-801.60"/>
    </edge>
    <edge id="rn_tl2" from="RN" to="TL2" priority="-1">
        <lane id="rn_tl2_0" index="0" speed="13.89" length="783.20" shape="788.80,800.00 788.80,16.80"/>
        <lane id="rn_tl2_1" index="1" speed="13.89" length="783.20" shape="792.00,800.00 792.00,16.80"/>
        <lane id="rn_tl2_2" index="2" speed="13.89" length="783.20" shape="795.20,800.00 795.20,16.80"/>
        <lane id="rn_tl2_3" index="3" speed="13.89" length="783.20" shape="798.40,800.00 798.40,16.80"/>
    </edge>
    <edge id="rs_tl4" from="RS" to="TL4" priority="-1">
        <lane id="rs_tl4_0" index="0" speed="13.89" length="783.20" shape="811.20,-1600.00 811.20,-816.80"/>
        <lane id="rs_tl4_1" index="1" speed="13.89" length="783.20" shape="808.00,-1600.00 808.00,-816.80"/>
        <lane id="rs_tl4_2" index="2" speed="13.89" length="783.20" shape="804.80,-1600.00 804.80,-816.80"/>
        <lane id="rs_tl4_3" index="3" speed="13.89" length="783.20" shape="801.60,-1600.00 801.60,-816.80"/>
    </edge>
    <edge id="tl1_ln" from="TL1" to="LN" priority="-1" length="750.00">
        <lane id="tl1_ln_0" index="0" speed="13.89" length="750.00" shape="11.20,16.80 11.20,800.00"/>
        <lane id="tl1_ln_1" index="1" speed="13.89" length="750.00" shape="8.00,16.80 8.00,800.00"/>
        <lane id="tl1_ln_2" index="2" speed="13.89" length="750.00" shape="4.80,16.80 4.80,800.00"/>
        <lane id="tl1_ln_3" index="3" speed="13.89" length="750.00" shape="1.60,16.80 1.60,800.00"/>
    </edge>
    <edge id="tl1_tl2" from="TL1" to="TL2" priority="-1" length="750.00">
        <lane id="tl1_tl2_0" index="0" speed="13.89" length="750.00" shape="16.80,-11.20 783.20,-11.20"/>
        <lane id="tl1_tl2_1" index="1" speed="13.89" length="750.00" shape="16.80,-8.00 783.20,-8.00"/>
        <lane id="tl1_tl2_2" index="2" speed="13.89" length="750.00" shape="16.80,-4.80 783.20,-4.80"/>
        <lane id="tl1_tl2_3" index="3" speed="13.89" length="750.00" shape="16.80,-1.60 783.20,-1.60"/>
    </edge>
    <edge id="tl1_tl3" from="TL1" to="TL3" priority="-1" length="750.00">
        <lane id="tl1_tl3_0" index="0" speed="13.89" length="750.00" shape="-11.20,-16.80 -11.20,-783.20"/>
        <lane id="tl1_tl3_1" index="1" speed="13.89" length="750.00" shape="-8.00,-16.80 -8.00,-783.20"/>
        <lane id="tl1_tl3_2" index="2" speed="13.89" length="750.00" shape="-4.80,-16.80 -4.80,-783.20"/>
        <lane id="tl1_tl3_3" index="3" speed="13.89" length="750.00" shape="-1.60,-16.80 -1.60,-783.20"/>
    </edge>
    <edge id="tl1_uw" from="TL1" to="UW" priority="-1" length="750.00">
        <lane id="tl1_uw_0" index="0" speed="13.89" length="750.00" shape="-16.80,11.20 -800.00,11.20"/>
        <lane id="tl1_uw_1" index="1" speed="13.89" length="750.00" shape="-16.80,8.00 -800.00,8.00"/>
        <lane id="tl1_uw_2" index="2" speed="13.89" length="750.00" shape="-16.80,4.80 -800.00,4.80"/>
        <lane id="tl1_uw_3" index="3" speed="13.89" length="750.00" shape="-16.80,1.60 -800.00,1.60"/>
    </edge>
    <edge id="tl2_rn" from="TL2" to="RN" priority="-1">
        <lane id="tl2_rn_0" index="0" speed="13.89" length="783.20" shape="811.20,16.80 811.20,800.00"/>
        <lane id="tl2_rn_1" index="1" speed="13.89" length="783.20" shape="808.00,16.80 808.00,800.00"/>
        <lane id="tl2_rn_2" index="2" speed="13.89" length="783.20" shape="804.80,16.80 804.80,800.00"/>
        <lane id="tl2_rn_3" index="3" speed="13.89" length="783.20" shape="801.60,16.80 801.60,800.00"/>
    </edge>
    <edge id="tl2_tl1" from="TL2" to="TL1" priority="-1" length="750.00">
        <lane id="tl2_tl1_0" index="0" speed="13.89" length="750.00" shape="783.20,11.20 16.80,11.20"/>
        <lane id="tl2_tl1_1" index="1" speed="13.89" length="750.00" shape="783.20,8.00 16.80,8.00"/>
        <lane id="tl2_tl1_2" index="2" speed="13.89" length="750.00" shape="783.20,4.80 16.80,4.80"/>
        <lane id="tl2_tl1_3" index="3" speed="13.89" length="750.00" shape="783.20,1.60 16.80,1.60"/>
    </edge>
    <edge id="tl2_tl4" from="TL2" to="TL4" priority="-1" length="750.00">
        <lane id="tl2_tl4_0" index="0" speed="13.89" length="750.00" shape="788.80,-16.80 788.80,-783.20"/>
        <lane id="tl2_tl4_1" index="1" speed="13.89" length="750.00" shape="792.00,-16.80 792.00,-783.20"/>
        <lane id="tl2_tl4_2" index="2" speed="13.89" length="750.00" shape="795.20,-16.80 795.20,-783.20"/>
        <lane id="tl2_tl4_3" index="3" speed="13.89" length="750.00" shape="798.40,-16.80 798.40,-783.20"/>
    </edge>
    <edge id="tl2_ue" from="TL2" to="UE" priority="-1">
        <lane id="tl2_ue_0" index="0" speed="13.89" length="783.20" shape="816.80,-11.20 1600.00,-11.20"/>
        <lane id="tl2_ue_1" index="1" speed="13.89" length="783.20" shape="816.80,-8.00 1600.00,-8.00"/>
        <lane id="tl2_ue_2" index="2" speed="13.89" length="783.20" shape="816.80,-4.80 1600.00,-4.80"/>
        <lane id="tl2_ue_3" index="3" speed="13.89" length="783.20" shape="816.80,-1.60 1600.00,-1.60"/>
    </edge>
    <edge id="tl3_ls" from="TL3" to="LS" priority="-1">
        <lane id="tl3_ls_0" index="0" speed="13.89" length="783.20" shape="-11.20,-816.80 -11.20,-1600.00"/>
        <lane id="tl3_ls_1" index="1" speed="13.89" length="783.20" shape="-8.00,-816.80 -8.00,-1600.00"/>
        <lane id="tl3_ls_2" index="2" speed="13.89" length="783.20" shape="-4.80,-816.80 -4.80,-1600.00"/>
        <lane id="tl3_ls_3" index="3" speed="13.89" length="783.20" shape="-1.60,-816.80 -1.60,-1600.00"/>
    </edge>
    <edge id="tl3_lw" from="TL3" to="LW" priority="-1">
        <lane id="tl3_lw_0" index="0" speed="13.89" length="783.20" shape="-16.80,-788.80 -800.00,-788.80"/>
        <lane id="tl3_lw_1" index="1" speed="13.89" length="783.20" shape="-16.80,-792.00 -800.00,-792.00"/>
        <lane id="tl3_lw_2" index="2" speed="13.89" length="783.20" shape="-16.80,-795.20 -800.00,-795.20"/>
        <lane id="tl3_lw_3" index="3" speed="13.89" length="783.20" shape="-16.80,-798.40 -800.00,-798.40"/>
    </edge>
    <edge id="tl3_tl1" from="TL3" to="TL1" priority="-1" length="750.00">
        <lane id="tl3_tl1_0" index="0" speed="13.89" length="750.00" shape="11.20,-783.20 11.20,-16.80"/>
        <lane id="tl3_tl1_1" index="1" speed="13.89" length="750.00" shape="8.00,-783.20 8.00,-16.80"/>
        <lane id="tl3_tl1_2" index="2" speed="13.89" length="750.00" shape="4.80,-783.20 4.80,-16.80"/>
        <lane id="tl3_tl1_3" index="3" speed="13.89" length="750.00" shape="1.60,-783.20 1.60,-16.80"/>
    </edge>
    <edge id="tl3_tl4" from="TL3" to="TL4" priority="-1">
        <lane id="tl3_tl4_0" index="0" speed="13.89" length="766.40" shape="16.80,-811.20 783.20,-811.20"/>
        <lane id="tl3_tl4_1" index="1" speed="13.89" length="766.40" shape="16.80,-808.00 783.20,-808.00"/>
        <lane id="tl3_tl4_2" index="2" speed="13.89" length="766.40" shape="16.80,-804.80 783.20,-804.80"/>
        <lane id="tl3_tl4_3" index="3" speed="13.89" length="766.40" shape="16.80,-801.60 783.20,-801.60"/>
    </edge>
    <edge id="tl4_le" from="TL4" to="LE" priority="-1">
        <lane id="tl4_le_0" index="0" speed="13.89" length="783.20" shape="816.80,-811.20 1600.00,-811.20"/>
        <lane id="tl4_le_1" index="1" speed="13.89" length="783.20" shape="816.80,-808.00 1600.00,-808.00"/>
        <lane id="tl4_le_2" index="2" speed="13.89" length="783.20" shape="816.80,-804.80 1600.00,-804.80"/>
        <lane id="tl4_le_3" index="3" speed="13.89" length="783.20" shape="816.80,-801.60 1600.00,-801.60"/>
    </edge>
    <edge id="tl4_rs" from="TL4" to="RS" priority="-1">
        <lane id="tl4_rs_0" index="0" speed="13.89" length="783.20" shape="788.80,-816.80 788.80,-1600.00"/>
        <lane id="tl4_rs_1" index="1" speed="13.89" length="783.20" shape="792.00,-816.80 792.00,-1600.00"/>
        <lane id="tl4_rs_2" index="2" speed="13.89" length="783.20" shape="795.20,-816.80 795.20,-1600.00"/>
        <lane id="tl4_rs_3" index="3" speed="13.89" length="783.20" shape="798.40,-816.80 798.40,-1600.00"/>
    </edge>
    <edge id="tl4_tl2" from="TL4" to="TL2" priority="-1">
        <lane id="tl4_tl2_0" index="0" speed="13.89" length="766.40" shape="811.20,-783.20 811.20,-16.80"/>
        <lane id="tl4_tl2_1" index="1" speed="13.89" length="766.40" shape="808.00,-783.20 808.00,-16.80"/>
        <lane id="tl4_tl2_2" index="2" speed="13.89" length="766.40" shape="804.80,-783.20 804.80,-16.80"/>
        <lane id="tl4_tl2_3" index="3" speed="13.89" length="766.40" shape="801.60,-783.20 801.60,-16.80"/>
    </edge>
    <edge id="tl4_tl3" from="TL4" to="TL3" priority="-1">
        <lane id="tl4_tl3_0" index="0" speed="13.89" length="766.40" shape="783.20,-788.80 16.80,-788.80"/>
        <lane id="tl4_tl3_1" index="1" speed="13.89" length="766.40" shape="783.20,-792.00 16.80,-792.00"/>
        <lane id="tl4_tl3_2" index="2" speed="13.89" length="766.40" shape="783.20,-795.20 16.80,-795.20"/>
        <lane id="tl4_tl3_3" index="3" speed="13.89" length="766.40" shape="783.20,-798.40 16.80,-798.40"/>
    </edge>
    <edge id="ue-tl2" from="UE" to="TL2" priority="-1">
        <lane id="ue-tl2_0" index="0" speed="13.89" length="783.20" shape="1600.00,11.20 816.80,11.20"/>
        <lane id="ue-tl2_1" index="1" speed="13.89" length="783.20" shape="1600.00,8.00 816.80,8.00"/>
        <lane id="ue-tl2_2" index="2" speed="13.89" length="783.20" shape="1600.00,4.80 816.80,4.80"/>
        <lane id="ue-tl2_3" index="3" speed="13.89" length="783.20" shape="1600.00,1.60 816.80,1.60"/>
    </edge>
    <edge id="uw_tl1" from="UW" to="TL1" priority="-1" length="750.00">
        <lane id="uw_tl1_0" index="0" speed="13.89" length="750.00" shape="-800.00,-11.20 -16.80,-11.20"/>
        <lane id="uw_tl1_1" index="1" speed="13.89" length="750.00" shape="-800.00,-8.00 -16.80,-8.00"/>
        <lane id="uw_tl1_2" index="2" speed="13.89" length="750.00" shape="-800.00,-4.80 -16.80,-4.80"/>
        <lane id="uw_tl1_3" index="3" speed="13.89" length="750.00" shape="-800.00,-1.60 -16.80,-1.60"/>
    </edge>

    <tlLogic id="DS" type="static" programID="0" offset="0">
        <phase duration="33" state="GGGGgrrrrrGGGGgrrrrr"/>
        <phase duration="3"  state="yyyygrrrrryyyygrrrrr"/>
        <phase duration="6"  state="rrrrGrrrrrrrrrGrrrrr"/>
        <phase duration="3"  state="rrrryrrrrrrrrryrrrrr"/>
        <phase duration="33" state="rrrrrGGGGgrrrrrGGGGg"/>
        <phase duration="3"  state="rrrrryyyygrrrrryyyyg"/>
        <phase duration="6"  state="rrrrrrrrrGrrrrrrrrrG"/>
        <phase duration="3"  state="rrrrrrrrryrrrrrrrrry"/>
    </tlLogic>
    <tlLogic id="TL" type="static" programID="0" offset="0">
        <phase duration="18" state="rrrrrGGGGGrrrrrrrrrrGGGGgrrrrrGGGGgrrrrr"/>
        <phase duration="3"  state="rrrrryyyyyrrrrrrrrrryyyygrrrrryyyygrrrrr"/>
        <phase duration="6"  state="rrrrrGGGGGrrrrrrrrrrrrrrGrrrrrrrrrGrrrrr"/>
        <phase duration="3"  state="rrrrryyyyyrrrrrrrrrrrrrryrrrrrrrrryrrrrr"/>
        <phase duration="18" state="GGGGgrrrrrGGGGgrrrrrrrrrrrrrrrrrrrrGGGGG"/>
        <phase duration="3"  state="yyyygrrrrryyyygrrrrrrrrrrrrrrrrrrrryyyyy"/>
        <phase duration="6"  state="rrrrGrrrrrrrrrGrrrrrrrrrrrrrrrrrrrrGGGGG"/>
        <phase duration="3"  state="rrrryrrrrrrrrryrrrrrrrrrrrrrrrrrrrryyyyy"/>
        <phase duration="18" state="rrrrrGGGGgrrrrrGGGGgrrrrrGGGGgrrrrrGGGGg"/>
        <phase duration="3"  state="rrrrryyyygrrrrryyyygrrrrryyyygrrrrryyyyg"/>
        <phase duration="6"  state="rrrrrrrrrGrrrrrrrrrGrrrrrrrrrGrrrrrrrrrG"/>
        <phase duration="3"  state="rrrrrrrrryrrrrrrrrryrrrrrrrrryrrrrrrrrry"/>