<routes>
            <vType accel="1.0" decel="4.5" id="standard_car" length="5.0" minGap="2.5" maxSpeed="25" sigma="0.5" />

            <route id="UW_LN" edges="uw_tl1 tl1_ln"/>
            <route id="UW_RN0" edges="uw_tl1 tl1_tl2 tl2_rn"/>
            <route id="UW_RN1" edges="uw_tl1 tl1_tl3 tl3_tl4 tl4_tl2 tl2_rn"/>
            <route id="UW_UE0" edges="uw_tl1 tl1_tl2 tl2_ue"/>
            <route id="UW_UE1" edges="uw_tl1 tl1_tl3 tl3_tl4 tl4_tl2 tl2_ue"/>
            <route id="UW_LE0" edges="uw_tl1 tl1_tl2 tl2_tl4 tl4_le"/>
            <route id="UW_LE1" edges="uw_tl1 tl1_tl3 tl3_tl4 tl4_le"/>
            <route id="UW_RS0" edges="uw_tl1 tl1_tl2 tl2_tl4 tl4_rs"/>
            <route id="UW_RS1" edges="uw_tl1 tl1_tl3 tl3_tl4 tl4_rs"/>
            <route id="UW_LS0" edges="uw_tl1 tl1_tl3 tl3_ls"/>
            <route id="UW_LS1" edges="uw_tl1 tl1_tl2 tl2_tl4 tl4_tl3 tl3_ls"/>
            <route id="UW_LW0" edges="uw_tl1 tl1_tl3 tl3_lw"/>
            <route id="UW_LW1" edges="uw_tl1 tl1_tl2 tl2_tl4 tl4_tl3 tl3_lw"/>
            <route id="LW_LS" edges="lw_tl3 tl3_ls"/>
            <route id="LW_RS0" edges="lw_tl3 tl3_tl4 tl4_rs"/>
            <route id="LW_RS1" edges="lw_tl3 tl3_tl1 tl1_tl2 tl2_tl4 tl4_rs"/>
            <route id="LW_LE0" edges="lw_tl3 tl3_tl4 tl4_le"/>
            <route id="LW_LE1" edges="lw_tl3 tl3_tl1 tl1_tl2 tl2_tl4 tl4_le"/>
            <route id="LW_UE0" edges="lw_tl3 tl3_tl4 tl4_tl2 tl2_ue"/>
            <route id="LW_UE1" edges="lw_tl3 tl3_tl1 tl1_tl2 tl2_ue"/>
            <route id="LW_LN0" edges="lw_tl3 tl3_tl4 tl4_tl2 tl2_tl1 tl1_ln"/>
            <route id="LW_LN1" edges="lw_tl3 tl3_tl1 tl1_ln"/>
            <route id="LW_RN0" edges="lw_tl3 tl3_tl4 tl4_tl2 tl2_rn"/>
            <route id="LW_RN1" edges="lw_tl3 tl3_tl1 tl1_tl2 tl2_rn"/>
            <route id="LW_UW0" edges="lw_tl3 tl3_tl1 tl1_uw"/>
            <route id="LW_UW1" edges="lw_tl3 tl3_tl4 tl4_tl2 tl2_tl1 tl1_uw"/>
            <route id="LS_RS0" edges="ls_tl3 tl3_tl4 tl4_rs"/>
            <route id="LS_RS1" edges="ls_tl3 tl3_tl1 tl1_tl2 tl2_tl4 tl4_rs"/>
            <route id="LS_LE0" edges="ls_tl3 tl3_tl4 tl4_le"/>
            <route id="LS_LE1" edges="ls_tl3 tl3_tl1 tl1_tl2 tl2_tl4 tl4_le"/>
            <route id="LS_UE0" edges="ls_tl3 tl3_tl4 tl4_tl2 tl2_ue"/>
            <route id="LS_UE1" edges="ls_tl3 tl3_tl1 tl1_tl2 tl2_ue"/>
            <route id="LS_RN0" edges="ls_tl3 tl3_tl4 tl4_tl2 tl2_rn"/>
            <route id="LS_RN1" edges="ls_tl3 tl3_tl1 tl1_tl2 tl2_rn"/>
            <route id="LS_LN0" edges="ls_tl3 tl3_tl1 tl1_ln"/>
            <route id="LS_LN1" edges="ls_tl3 tl3_tl4 tl4_tl2 tl2_tl1 tl1_ln"/>
            <route id="LS_UW0" edges="ls_tl3 tl3_tl4 tl4_tl2 tl2_tl1 tl1_uw"/>
            <route id="LS_UW1" edges="ls_tl3 tl3_tl1 tl1_uw"/>
            <route id="LS_LW" edges="ls_tl3 tl3_lw"/>
            <route id="RS_LE" edges="rs_tl4 tl4_le"/>
            <route id="RS_UE0" edges="rs_tl4 tl4_tl2 tl2_ue"/>
            <route id="RS_UE1" edges="rs_tl4 tl4_tl3 tl3_tl1 tl1_tl2 tl2_ue"/>
            <route id="RS_RN0" edges="rs_tl4 tl4_tl2 tl2_rn"/>
            <route id="RS_RN1" edges="rs_tl4 tl4_tl3 tl3_tl1 tl1_tl2 tl2_rn"/>
            <route id="RS_LN0" edges="rs_tl4 tl4_tl2 tl2_tl1 tl1_ln"/>
            <route id="RS_LN1" edges="rs_tl4 tl4_tl3 tl3_tl1 tl1_ln"/>
            <route id="RS_UW0" edges="rs_tl4 tl4_tl2 tl2_tl1 tl1_uw"/> 
            <route id="RS_UW1" edges="rs_tl4 tl4_tl3 tl3_tl1 tl1_uw"/>
            <route id="RS_LW0" edges="rs_tl4 tl4_tl3 tl3_lw"/>
            <route id="RS_LW1" edges="rs_tl4 tl4_tl2 tl2_tl1 tl1_tl3 tl3_lw"/> 
            <route id="RS_LS0" edges="rs_tl4 tl4_tl3 tl3_ls"/>
            <route id="RS_LS1" edges="rs_tl4 tl4_tl2 tl2_tl1 tl1_tl3 tl3_ls"/>
            <route id="LE_UE0" edges="le_tl4 tl4_tl2 tl2_ue"/>
            <route id="LE_UE1" edges="le_tl4 tl4_tl3 tl3_tl1 tl1_tl2 tl2_ue"/>
            <route id="LE_RN0" edges="le_tl4 tl4_tl2 tl2_rn"/>
            <route id="LE_RN1" edges="le_tl4 tl4_tl3 tl3_tl1 tl1_tl2 tl2_rn"/>
            <route id="LE_LN0" edges="le_tl4 tl4_tl2 tl2_tl1 tl1_ln"/>
            <route id="LE_LN1" edges="le_tl4 tl4_tl3 tl3_tl1 tl1_ln"/>
            <route id="LE_UW0" edges="le_tl4 tl4_tl2 tl2_tl1 tl1_uw"/>
            <route id="LE_UW1" edges="le_tl4 tl4_tl3 tl3_tl1 tl1_uw"/>
            <route id="LE_LW0" edges="le_tl4 tl4_tl3 tl3_lw"/>
            <route id="LE_LW1" edges="le_tl4 tl4_tl2 tl2_tl1 tl1_tl3 tl3_lw"/>
            <route id="LE_LS0" edges="le_tl4 tl4_tl3 tl3_ls"/>
            <route id="LE_LS1" edges="le_tl4 tl4_tl2 tl2_tl1 tl1_tl3 tl3_ls"/>
            <route id="LE_RS" edges="le_tl4 tl4_rs"/>
            <route id="UE_RN" edges="ue_tl2 tl2_rn"/>
            <route id="UE_LN0" edges="ue_tl2 tl2_tl1 tl1_ln"/>
            <route id="UE_LN1" edges="ue_tl2 tl2_tl4 tl4_tl3 tl3_tl1 tl1_ln"/>
            <route id="UE_UW0" edges="ue_tl2 tl2_tl1 tl1_uw"/>
            <route id="UE_UW1" edges="ue_tl2 tl2_tl4 tl4_tl3 tl3_tl1 tl1_uw"/>
            <route id="UE_LW0" edges="ue_tl2 tl2_tl1 tl1_tl3 tl3_lw"/>
            <route id="UE_LW1" edges="ue_tl2 tl2_tl4 tl4_tl3 tl3_lw"/>
            <route id="UE_LS0" edges="ue_tl2 tl2_tl1 tl1_tl3 tl3_ls"/>
            <route id="UE_LS1" edges="ue_tl2 tl2_tl4 tl4_tl3 tl3_ls"/>
            <route id="UE_RS0" edges="ue_tl2 tl2_tl4 tl4_rs"/>
            <route id="UE_RS1" edges="ue_tl2 tl2_tl1 tl1_tl3 tl3_tl4 tl4_rs"/>
            <route id="UE_LE0" edges="ue_tl2 tl2_tl4 tl4_le"/>
            <route id="UE_LE1" edges="ue_tl2 tl2_tl1 tl1_tl3 tl3_tl4 tl4_le"/>
            <route id="RN_LN0" edges="rn_tl2 tl2_tl1 tl1_ln"/>
            <route id="RN_LN1" edges="rn_tl2 tl2_tl4 tl4_tl3 tl3_tl1 tl1_ln"/>
            <route id="RN_UW0" edges="rn_tl2 tl2_tl1 tl1_uw"/>
            <route id="RN_UW1" edges="rn_tl2 tl2_tl4 tl4_tl3 tl3_tl1 tl1_uw"/>
            <route id="RN_LW0" edges="rn_tl2 tl2_tl1 tl1_tl3 tl3_lw"/>
            <route id="RN_LW1" edges="rn_tl2 tl2_tl4 tl4_tl3 tl3_lw"/>
            <route id="RN_LS0" edges="rn_tl2 tl2_tl1 tl1_tl3 tl3_ls"/>
            <route id="RN_LS1" edges="rn_tl2 tl2_tl4 tl4_tl3 tl3_ls"/>
            <route id="RN_RS0" edges="rn_tl2 tl2_tl4 tl4_rs"/>
            <route id="RN_RS1" edges="rn_tl2 tl2_tl1 tl1_tl3 tl3_tl4 tl4_rs"/>
            <route id="RN_LE0" edges="rn_tl2 tl2_tl4 tl4_le"/>
            <route id="RN_LE1" edges="rn_tl2 tl2_tl1 tl1_tl3 tl3_tl4 tl4_le"/>
            <route id="RN_UE" edges="rn_tl2 tl2_ue"/>
            <route id="LN_UW" edges="ln_tl1 tl1_uw"/>
            <route id="LN_LW0" edges="ln_tl1 tl1_tl3 tl3_lw"/>
            <route id="LN_LW1" edges="ln_tl1 tl1_tl2 tl2_tl4 tl4_tl3 tl3_lw"/>
            <route id="LN_LS0" edges="ln_tl1 tl1_tl3 tl3_ls"/>
            <route id="LN_LS1" edges="ln_tl1 tl1_tl2 tl2_tl4 tl4_tl3 tl3_ls"/>
            <route id="LN_RS0" edges="ln_tl1 tl1_tl3 tl3_tl4 tl4_rs"/>
            <route id="LN_RS1" edges="ln_tl1 tl1_tl2 tl2_tl4 tl4_rs"/>
            <route id="LN_LE0" edges="ln_tl1 tl1_tl3 tl3_tl4 tl4_le"/>
            <route id="LN_LE1" edges="ln_tl1 tl1_tl2 tl2_tl4 tl4_le"/>
            <route id="LN_UE0" edges="ln_tl1 tl1_tl2 tl2_ue"/>
            <route id="LN_UE1" edges="ln_tl1 tl1_tl3 tl3_tl4 tl4_tl2 tl2_ue"/>
            <route id="LN_RN0" edges="ln_tl1 tl1_tl2 tl2_rn"/>
            <route id="LN_RN1" edges="ln_tl1 tl1_tl3 tl3_tl4 tl4_tl2 tl2_rn"/>
    <vehicle id="RS_LE_0" type="standard_car" route="RS_LE" depart="66.0" departLane="random" departSpeed="10" />
    <vehicle id="RS_UW0_1" type="standard_car" route="RS_UW0" depart="66.0" departLane="random" departSpeed="10" />
    <vehicle id="LE_LW0_2" type="standard_car" route="LE_LW0" depart="71.0" departLane="random" departSpeed="10" />
    <vehicle id="UE_UW0_3" type="standard_car" route="UE_UW0" depart="78.0" departLane="random" departSpeed="10" />
    <vehicle id="LE_LW0_4" type="standard_car" route="LE_LW0" depart="87.0" departLane="random" departSpeed="10" />
    <vehicle id="LE_LN1_5" type="standard_car" route="LE_LN1" depart="89.0" departLane="random" departSpeed="10" />
    <vehicle id="LS_UW1_6" type="standard_car" route="LS_UW1" depart="119.0" departLane="random" departSpeed="10" />
    <vehicle id="LE_LW0_7" type="standard_car" route="LE_LW0" depart="121.0" departLane="random" departSpeed="10" />
    <vehicle id="LN_UE0_8" type="standard_car" route="LN_UE0" depart="123.0" departLane="random" departSpeed="10" />
    <vehicle id="LW_LN1_9" type="standard_car" route="LW_LN1" depart="123.0" departLane="random" departSpeed="10" />
    <vehicle id="LN_LS0_10" type="standard_car" route="LN_LS0" depart="124.0" departLane="random" departSpeed="10" />
    <vehicle id="UE_UW0_11" type="standard_car" route="UE_UW0" depart="132.0" departLane="random" departSpeed="10" />
    <vehicle id="UE_UW0_12" type="standard_car" route="UE_UW0" depart="142.0" departLane="random" departSpeed="10" />
    <vehicle id="LE_LW0_13" type="standard_car" route="LE_LW0" depart="143.0" departLane="random" departSpeed="10" />
    <vehicle id="UE_LN0_14" type="standard_car" route="UE_LN0" depart="143.0" departLane="random" departSpeed="10" />
    <vehicle id="LW_LE0_15" type="standard_car" route="LW_LE0" depart="145.0" departLane="random" departSpeed="10" />
    <vehicle id="LW_LE0_16" type="standard_car" route="LW_LE0" depart="146.0" departLane="random" departSpeed="10" />
    <vehicle id="LS_UW1_17" type="standard_car" route="LS_UW1" depart="170.0" departLane="random" departSpeed="10" />
    <vehicle id="LW_RS0_18" type="standard_car" route="LW_RS0" depart="185.0" departLane="random" departSpeed="10" />
    <vehicle id="RN_RS0_19" type="standard_car" route="RN_RS0" depart="186.0" departLane="random" departSpeed="10" />
    <vehicle id="UE_LS0_20" type="standard_car" route="UE_LS0" depart="188.0" departLane="random" departSpeed="10" />
    <vehicle id="LW_RS0_21" type="standard_car" route="LW_RS0" depart="189.0" departLane="random" departSpeed="10" />
    <vehicle id="LW_LE0_22" type="standard_car" route="LW_LE0" depart="189.0" departLane="random" departSpeed="10" />
    <vehicle id="UW_UE0_23" type="standard_car" route="UW_UE0" depart="190.0" departLane="random" departSpeed="10" />
    <vehicle id="LW_LN1_24" type="standard_car" route="LW_LN1" depart="194.0" departLane="random" departSpeed="10" />
    <vehicle id="UW_UE0_25" type="standard_car" route="UW_UE0" depart="202.0" departLane="random" departSpeed="10" />
    <vehicle id="LN_LW0_26" type="standard_car" route="LN_LW0" depart="203.0" departLane="random" departSpeed="10" />
    <vehicle id="RN_RS0_27" type="standard_car" route="RN_RS0" depart="207.0" departLane="random" departSpeed="10" />
    <vehicle id="LN_UE0_28" type="standard_car" route="LN_UE0" depart="210.0" departLane="random" departSpeed="10" />
    <vehicle id="UW_UE0_29" type="standard_car" route="UW_UE0" depart="212.0" departLane="random" departSpeed="10" />
    <vehicle id="LN_LS0_30" type="standard_car" route="LN_LS0" depart="212.0" departLane="random" departSpeed="10" />
    <vehicle id="LN_UW_31" type="standard_car" route="LN_UW" depart="215.0" departLane="random" departSpeed="10" />
    <vehicle id="LW_LN0_32" type="standard_car" route="LW_LN0" depart="219.0" departLane="random" departSpeed="10" />
    <vehicle id="UW_LS0_33" type="standard_car" route="UW_LS0" depart="219.0" departLane="random" departSpeed="10" />
    <vehicle id="LE_RN0_34" type="standard_car" route="LE_RN0" depart="222.0" departLane="random" departSpeed="10" />
    <vehicle id="UE_UW0_35" type="standard_car" route="UE_UW0" depart="237.0" departLane="random" departSpeed="10" />
    <vehicle id="UE_UW0_36" type="standard_car" route="UE_UW0" depart="243.0" departLane="random" departSpeed="10" />
    <vehicle id="LS_LN0_37" type="standard_car" route="LS_LN0" depart="243.0" departLane="random" departSpeed="10" />
    <vehicle id="LW_RS0_38" type="standard_car" route="LW_RS0" depart="247.0" departLane="random" departSpeed="10" />
    <vehicle id="LW_RS0_39" type="standard_car" route="LW_RS0" depart="248.0" departLane="random" departSpeed="10" />
    <vehicle id="UW_UE0_40" type="standard_car" route="UW_UE0" depart="250.0" departLane="random" departSpeed="10" />
    <vehicle id="RN_RS0_41" type="standard_car" route="RN_RS0" depart="260.0" departLane="random" departSpeed="10" />
    <vehicle id="LE_LW0_42" type="standard_car" route="LE_LW0" depart="265.0" departLane="random" departSpeed="10" />
    <vehicle id="LN_UW_43" type="standard_car" route="LN_UW" depart="267.0" departLane="random" departSpeed="10" />
    <vehicle id="LS_LN0_44" type="standard_car" route="LS_LN0" depart="270.0" departLane="random" departSpeed="10" />
    <vehicle id="LE_LN1_45" type="standard_car" route="LE_LN1" depart="270.0" departLane="random" departSpeed="10" />
    <vehicle id="UW_UE0_46" type="standard_car" route="UW_UE0" depart="273.0" departLane="random" departSpeed="10" />
    <vehicle id="LN_LS0_47" type="standard_car" route="LN_LS0" depart="273.0" departLane="random" departSpeed="10" />
    <vehicle id="UE_RS0_48" type="standard_car" route="UE_RS0" depart="277.0" departLane="random" departSpeed="10" />
    <vehicle id="LN_RN0_49" type="standard_car" route="LN_RN0" depart="279.0" departLane="random" departSpeed="10" />
    <vehicle id="UW_UE0_50" type="standard_car" route="UW_UE0" depart="281.0" departLane="random" departSpeed="10" />
    <vehicle id="LN_LS0_51" type="standard_car" route="LN_LS0" depart="289.0" departLane="random" departSpeed="10" />
    <vehicle id="UW_LS0_52" type="standard_car" route="UW_LS0" depart="290.0" departLane="random" departSpeed="10" />
    <vehicle id="LE_LW0_53" type="standard_car" route="LE_LW0" depart="292.0" departLane="random" departSpeed="10" />
    <vehicle id="UE_UW0_54" type="standard_car" route="UE_UW0" depart="294.0" departLane="random" departSpeed="10" />
    <vehicle id="LW_RN0_55" type="standard_car" route="LW_RN0" depart="296.0" departLane="random" departSpeed="10" />
    <vehicle id="LN_LS0_56" type="standard_car" route="LN_LS0" depart="296.0" departLane="random" departSpeed="10" />
    <vehicle id="LW_RS0_57" type="standard_car" route="LW_RS0" depart="300.0" departLane="random" departSpeed="10" />
    <vehicle id="UE_UW0_58" type="standard_car" route="UE_UW0" depart="302.0" departLane="random" departSpeed="10" />
    <vehicle id="LN_LS0_59" type="standard_car" route="LN_LS0" depart="303.0" departLane="random" departSpeed="10" />
    <vehicle id="UE_UW0_60" type="standard_car" route="UE_UW0" depart="305.0" departLane="random" departSpeed="10" />
    <vehicle id="UE_LN0_61" type="standard_car" route="UE_LN0" depart="308.0" departLane="random" departSpeed="10" />
    <vehicle id="UW_UE0_62" type="standard_car" route="UW_UE0" depart="310.0" departLane="random" departSpeed="10" />
    <vehicle id="LE_UE1_63" type="standard_car" route="LE_UE1" depart="313.0" departLane="random" departSpeed="10" />
    <vehicle id="RN_RS0_64" type="standard_car" route="RN_RS0" depart="318.0" departLane="random" departSpeed="10" />
    <vehicle id="LW_RN0_65" type="standard_car" route="LW_RN0" depart="318.0" departLane="random" departSpeed="10" />
    <vehicle id="RS_UE0_66" type="standard_car" route="RS_UE0" depart="322.0" departLane="random" departSpeed="10" />
    <vehicle id="LN_LS0_67" type="standard_car" route="LN_LS0" depart="322.0" departLane="random" departSpeed="10" />
    <vehicle id="UW_UE0_68" type="standard_car" route="UW_UE0" depart="326.0" departLane="random" departSpeed="10" />
    <vehicle id="LW_RS0_69" type="standard_car" route="LW_RS0" depart="330.0" departLane="random" departSpeed="10" />
    <vehicle id="LE_LW0_70" type="standard_car" route="LE_LW0" depart="330.0" departLane="random" departSpeed="10" />
    <vehicle id="LN_UW_71" type="standard_car" route="LN_UW" depart="339.0" departLane="random" departSpeed="10" />
    <vehicle id="UW_UE0_72" type="standard_car" route="UW_UE0" depart="339.0" departLane="random" departSpeed="10" />
    <vehicle id="RN_RS0_73" type="standard_car" route="RN_RS0" depart="341.0" departLane="random" departSpeed="10" />
    <vehicle id="LW_LE0_74" type="standard_car" route="LW_LE0" depart="342.0" departLane="random" departSpeed="10" />
    <vehicle id="LS_LN0_75" type="standard_car" route="LS_LN0" depart="342.0" departLane="random" departSpeed="10" />
    <vehicle id="UW_UE0_76" type="standard_car" route="UW_UE0" depart="344.0" departLane="random" departSpeed="10" />
    <vehicle id="LN_RS0_77" type="standard_car" route="LN_RS0" depart="344.0" departLane="random" departSpeed="10" />
    <vehicle id="LW_LE0_78" type="standard_car" route="LW_LE0" depart="347.0" departLane="random" departSpeed="10" />
    <vehicle id="LW_RS0_79" type="standard_car" route="LW_RS0" depart="347.0" departLane="random" departSpeed="10" />
    <vehicle id="LW_RN0_80" type="standard_car" route="LW_RN0" depart="351.0" departLane="random" departSpeed="10" />
    <vehicle id="LW_UW1_81" type="standard_car" route="LW_UW1" depart="351.0" departLane="random" departSpeed="10" />
    <vehicle id="RN_RS0_82" type="standard_car" route="RN_RS0" depart="352.0" departLane="random" departSpeed="10" />
    <vehicle id="UE_RN_83" type="standard_car" route="UE_RN" depart="353.0" departLane="random" departSpeed="10" />
    <vehicle id="UW_RS0_84" type="standard_car" route="UW_RS0" depart="354.0" departLane="random" departSpeed="10" />
    <vehicle id="LE_LW0_85" type="standard_car" route="LE_LW0" depart="355.0" departLane="random" departSpeed="10" />
    <vehicle id="LW_LE0_86" type="standard_car" route="LW_LE0" depart="356.0" departLane="random" departSpeed="10" />
    <vehicle id="RN_RS0_87" type="standard_car" route="RN_RS0" depart="357.0" departLane="random" departSpeed="10" />
    <vehicle id="UE_UW0_88" type="standard_car" route="UE_UW0" depart="358.0" departLane="random" departSpeed="10" />
    <vehicle id="UE_UW0_89" type="standard_car" route="UE_UW0" depart="364.0" departLane="random" departSpeed="10" />
    <vehicle id="UW_UE0_90" type="standard_car" route="UW_UE0" depart="364.0" departLane="random" departSpeed="10" />
    <vehicle id="UE_LS0_91" type="standard_car" route="UE_LS0" depart="367.0" departLane="random" departSpeed="10" />
    <vehicle id="LN_LS0_92" type="standard_car" route="LN_LS0" depart="367.0" departLane="random" departSpeed="10" />
    <vehicle id="LE_LN1_93" type="standard_car" route="LE_LN1" depart="370.0" departLane="random" departSpeed="10" />
    <vehicle id="LW_LE0_94" type="standard_car" route="LW_LE0" depart="373.0" departLane="random" departSpeed="10" />
    <vehicle id="LN_LS0_95" type="standard_car" route="LN_LS0" depart="374.0" departLane="random" departSpeed="10" />
    <vehicle id="LS_LW_96" type="standard_car" route="LS_LW" depart="374.0" departLane="random" departSpeed="10" />
    <vehicle id="LS_UE1_97" type="standard_car" route="LS_UE1" depart="377.0" departLane="random" departSpeed="10" />
    <vehicle id="UE_LN0_98" type="standard_car" route="UE_LN0" depart="381.0" departLane="random" departSpeed="10" />
    <vehicle id="UW_UE0_99" type="standard_car" route="UW_UE0" depart="383.0" departLane="random" departSpeed="10" />
    <vehicle id="LW_LS_100" type="standard_car" route="LW_LS" depart="383.0" departLane="random" departSpeed="10" />
    <vehicle id="UW_UE0_101" type="standard_car" route="UW_UE0" depart="385.0" departLane="random" departSpeed="10" />
    <vehicle id="LS_LW_102" type="standard_car" route="LS_LW" depart="386.0" departLane="random" departSpeed="10" />
    <vehicle id="RS_UW0_103" type="standard_car" route="RS_UW0" depart="387.0" departLane="random" departSpeed="10" />
    <vehicle id="RN_RS0_104" type="standard_car" route="RN_RS0" depart="390.0" departLane="random" departSpeed="10" />
    <vehicle id="LN_LS0_105" type="standard_car" route="LN_LS0" depart="391.0" departLane="random" departSpeed="10" />
    <vehicle id="RN_RS0_106" type="standard_car" route="RN_RS0" depart="392.0" departLane="random" departSpeed="10" />
    <vehicle id="LW_LE0_107" type="standard_car" route="LW_LE0" depart="393.0" departLane="random" departSpeed="10" />
    <vehicle id="RN_RS0_108" type="standard_car" route="RN_RS0" depart="393.0" departLane="random" departSpeed="10" />
    <vehicle id="RS_UE0_109" type="standard_car" route="RS_UE0" depart="393.0" departLane="random" departSpeed="10" />
    <vehicle id="LS_RN1_110" type="standard_car" route="LS_RN1" depart="393.0" departLane="random" departSpeed="10" />
    <vehicle id="LE_LW0_111" type="standard_car" route="LE_LW0" depart="397.0" departLane="random" departSpeed="10" />
    <vehicle id="LW_LE0_112" type="standard_car" route="LW_LE0" depart="398.0" departLane="random" departSpeed="10" />
    <vehicle id="LE_LS0_113" type="standard_car" route="LE_LS0" depart="398.0" departLane="random" departSpeed="10" />
    <vehicle id="UW_RS0_114" type="standard_car" route="UW_RS0" depart="400.0" departLane="random" departSpeed="10" />
    <vehicle id="LN_LS0_115" type="standard_car" route="LN_LS0" depart="402.0" departLane="random" departSpeed="10" />
    <vehicle id="RS_LW0_116" type="standard_car" route="RS_LW0" depart="402.0" departLane="random" departSpeed="10" />
    <vehicle id="RN_RS0_117" type="standard_car" route="RN_RS0" depart="404.0" departLane="random" departSpeed="10" />
    <vehicle id="UE_RN_118" type="standard_car" route="UE_RN" depart="406.0" departLane="random" departSpeed="10" />
    <vehicle id="LS_LN0_119" type="standard_car" route="LS_LN0" depart="408.0" departLane="random" departSpeed="10" />
    <vehicle id="UE_RS0_120" type="standard_car" route="UE_RS0" depart="411.0" departLane="random" departSpeed="10" />
    <vehicle id="LW_LE0_121" type="standard_car" route="LW_LE0" depart="412.0" departLane="random" departSpeed="10" />
    <vehicle id="RN_RS0_122" type="standard_car" route="RN_RS0" depart="413.0" departLane="random" departSpeed="10" />
    <vehicle id="LS_LN0_123" type="standard_car" route="LS_LN0" depart="417.0" departLane="random" departSpeed="10" />
    <vehicle id="UE_UW0_124" type="standard_car" route="UE_UW0" depart="417.0" departLane="random" departSpeed="10" />
    <vehicle id="UW_UE0_125" type="standard_car" route="UW_UE0" depart="417.0" departLane="random" departSpeed="10" />
    <vehicle id="UE_UW0_126" type="standard_car" route="UE_UW0" depart="420.0" departLane="random" departSpeed="10" />
    <vehicle id="LE_LW0_127" type="standard_car" route="LE_LW0" depart="420.0" departLane="random" departSpeed="10" />
    <vehicle id="RS_LN0_128" type="standard_car" route="RS_LN0" depart="420.0" departLane="random" departSpeed="10" />
    <vehicle id="LS_UE1_129" type="standard_car" route="LS_UE1" depart="421.0" departLane="random" departSpeed="10" />
    <vehicle id="LW_LE0_130" type="standard_car" route="LW_LE0" depart="421.0" departLane="random" departSpeed="10" />
    <vehicle id="UE_UW0_131" type="standard_car" route="UE_UW0" depart="422.0" departLane="random" departSpeed="10" />
    <vehicle id="UW_UE0_132" type="standard_car" route="UW_UE0" depart="424.0" departLane="random" departSpeed="10" />
    <vehicle id="LN_LS0_133" type="standard_car" route="LN_LS0" depart="426.0" departLane="random" departSpeed="10" />
    <vehicle id="UW_LN_134" type="standard_car" route="UW_LN" depart="427.0" departLane="random" departSpeed="10" />
    <vehicle id="UE_UW0_135" type="standard_car" route="UE_UW0" depart="431.0" departLane="random" departSpeed="10" />
    <vehicle id="RN_RS0_136" type="standard_car" route="RN_RS0" depart="433.0" departLane="random" departSpeed="10" />
    <vehicle id="LS_UE1_137" type="standard_car" route="LS_UE1" depart="433.0" departLane="random" departSpeed="10" />
    <vehicle id="RN_RS0_138" type="standard_car" route="RN_RS0" depart="434.0" departLane="random" departSpeed="10" />
    <vehicle id="UE_UW0_139" type="standard_car" route="UE_UW0" depart="436.0" departLane="random" departSpeed="10" />
    <vehicle id="LN_RN0_140" type="standard_car" route="LN_RN0" depart="436.0" departLane="random" departSpeed="10" />
    <vehicle id="UE_UW0_141" type="standard_car" route="UE_UW0" depart="437.0" departLane="random" departSpeed="10" />
    <vehicle id="LN_RN0_142" type="standard_car" route="LN_RN0" depart="437.0" departLane="random" departSpeed="10" />
    <vehicle id="LN_RN0_143" type="standard_car" route="LN_RN0" depart="438.0" departLane="random" departSpeed="10" />
    <vehicle id="RN_RS0_144" type="standard_car" route="RN_RS0" depart="438.0" departLane="random" departSpeed="10" />
    <vehicle id="UW_LN_145" type="standard_car" route="UW_LN" depart="438.0" departLane="random" departSpeed="10" />
    <vehicle id="UE_UW0_146" type="standard_car" route="UE_UW0" depart="441.0" departLane="random" departSpeed="10" />
    <vehicle id="UW_UE0_147" type="standard_car" route="UW_UE0" depart="441.0" departLane="random" departSpeed="10" />
    <vehicle id="UW_UE0_148" type="standard_car" route="UW_UE0" depart="442.0" departLane="random" departSpeed="10" />
    <vehicle id="LE_LW0_149" type="standard_car" route="LE_LW0" depart="444.0" departLane="random" departSpeed="10" />
    <vehicle id="UE_UW0_150" type="standard_car" route="UE_UW0" depart="444.0" departLane="random" departSpeed="10" />
    <vehicle id="LE_LW0_151" type="standard_car" route="LE_LW0" depart="444.0" departLane="random" departSpeed="10" />
    <vehicle id="UE_UW0_152" type="standard_car" route="UE_UW0" depart="446.0" departLane="random" departSpeed="10" />
    <vehicle id="UW_LN_153" type="standard_car" route="UW_LN" depart="447.0" departLane="random" departSpeed="10" />
    <vehicle id="RN_LN1_154" type="standard_car" route="RN_LN1" depart="449.0" departLane="random" departSpeed="10" />
    <vehicle id="LW_LN1_155" type="standard_car" route="LW_LN1" depart="450.0" departLane="random" departSpeed="10" />
    <vehicle id="LS_LN0_156" type="standard_car" route="LS_LN0" depart="451.0" departLane="random" departSpeed="10" />
    <vehicle id="LE_UE1_157" type="standard_car" route="LE_UE1" depart="453.0" departLane="random" departSpeed="10" />
    <vehicle id="UE_UW0_158" type="standard_car" route="UE_UW0" depart="455.0" departLane="random" departSpeed="10" />
    <vehicle id="LN_LW0_159" type="standard_car" route="LN_LW0" depart="455.0" departLane="random" departSpeed="10" />
    <vehicle id="LS_UW1_160" type="standard_car" route="LS_UW1" depart="456.0" departLane="random" departSpeed="10" />
    <vehicle id="LW_UE1_161" type="standard_car" route="LW_UE1" depart="456.0" departLane="random" departSpeed="10" />
    <vehicle id="LN_LS0_162" type="standard_car" route="LN_LS0" depart="456.0" departLane="random" departSpeed="10" />
    <vehicle id="LW_LE0_163" type="standard_car" route="LW_LE0" depart="457.0" departLane="random" departSpeed="10" />
    <vehicle id="UW_RN0_164" type="standard_car" route="UW_RN0" depart="458.0" departLane="random" departSpeed="10" />
    <vehicle id="UW_LN_165" type="standard_car" route="UW_LN" depart="461.0" departLane="random" departSpeed="10" />
    <vehicle id="LS_LN0_166" type="standard_car" route="LS_LN0" depart="461.0" departLane="random" departSpeed="10" />
    <vehicle id="UE_RN_167" type="standard_car" route="UE_RN" depart="463.0" departLane="random" departSpeed="10" />
    <vehicle id="UW_UE0_168" type="standard_car" route="UW_UE0" depart="464.0" departLane="random" departSpeed="10" />
    <vehicle id="UE_UW0_169" type="standard_car" route="UE_UW0" depart="466.0" departLane="random" departSpeed="10" />
    <vehicle id="RN_RS0_170" type="standard_car" route="RN_RS0" depart="469.0" departLane="random" departSpeed="10" />
    <vehicle id="LE_RS_171" type="standard_car" route="LE_RS" depart="471.0" departLane="random" departSpeed="10" />
    <vehicle id="LN_UW_172" type="standard_car" route="LN_UW" depart="471.0" departLane="random" departSpeed="10" />
    <vehicle id="UW_UE0_173" type="standard_car" route="UW_UE0" depart="472.0" departLane="random" departSpeed="10" />
    <vehicle id="LN_LS0_174" type="standard_car" route="LN_LS0" depart="472.0" departLane="random" departSpeed="10" />
    <vehicle id="LS_LN0_175" type="standard_car" route="LS_LN0" depart="472.0" departLane="random" departSpeed="10" />
    <vehicle id="RN_RS0_176" type="standard_car" route="RN_RS0" depart="473.0" departLane="random" departSpeed="10" />
    <vehicle id="LS_LN0_177" type="standard_car" route="LS_LN0" depart="473.0" departLane="random" departSpeed="10" />
    <vehicle id="LS_LW_178" type="standard_car" route="LS_LW" depart="475.0" departLane="random" departSpeed="10" />
    <vehicle id="LE_LW0_179" type="standard_car" route="LE_LW0" depart="477.0" departLane="random" departSpeed="10" />
    <vehicle id="LW_LE0_180" type="standard_car" route="LW_LE0" depart="482.0" departLane="random" departSpeed="10" />
    <vehicle id="RN_RS0_181" type="standard_car" route="RN_RS0" depart="483.0" departLane="random" departSpeed="10" />
    <vehicle id="LE_RS_182" type="standard_car" route="LE_RS" depart="484.0" departLane="random" departSpeed="10" />
    <vehicle id="RS_LW0_183" type="standard_car" route="RS_LW0" depart="485.0" departLane="random" departSpeed="10" />
    <vehicle id="RN_RS0_184" type="standard_car" route="RN_RS0" depart="489.0" departLane="random" departSpeed="10" />
    <vehicle id="LW_RS0_185" type="standard_car" route="LW_RS0" depart="490.0" departLane="random" departSpeed="10" />
    <vehicle id="LE_LW0_186" type="standard_car" route="LE_LW0" depart="490.0" departLane="random" departSpeed="10" />
    <vehicle id="UW_UE0_187" type="standard_car" route="UW_UE0" depart="490.0" departLane="random" departSpeed="10" />
    <vehicle id="LE_LW0_188" type="standard_car" route="LE_LW0" depart="493.0" departLane="random" departSpeed="10" />
    <vehicle id="LS_LW_189" type="standard_car" route="LS_LW" depart="493.0" departLane="random" departSpeed="10" />
    <vehicle id="LW_LE0_190" type="standard_car" route="LW_LE0" depart="494.0" departLane="random" departSpeed="10" />