<routes>
            <vType accel="1.0" decel="4.5" id="standard_car" length="5.0" minGap="2.5" maxSpeed="25" sigma="0.5" />

            <route id="UW_LN" edges="uw_tl1 tl1_ln"/>
            <route id="UW_RN0" edges="uw_tl1 tl1_tl2 tl2_rn"/>
            <route id="UW_RN1" edges="uw_tl1 tl1_tl3 tl3_tl4 tl4_tl2 tl2_rn"/>
            <route id="UW_UE0" edges="uw_tl1 tl1_tl2 tl2_ue"/>
            <route id="UW_UE1" edges="uw_tl1 tl1_tl3 tl3_tl4 tl4_tl2 tl2_ue"/>
            <route id="UW_LE0" edges="uw_tl1 tl1_tl2 tl2_tl4 tl4_le"/>
            <route id="UW_LE1" edges="uw_tl1 tl1_tl3 tl3_tl4 tl4_le"/>
            <route id="UW_RS0" edges="uw_tl1 tl1_tl2 tl2_tl4 tl4_rs"/>
            <route id="UW_RS1" edges="uw_tl1 tl1_tl3 tl3_tl4 tl4_rs"/>
            <route id="UW_LS0" edges="uw_tl1 tl1_tl3 tl3_ls"/>
            <route id="UW_LS1" edges="uw_tl1 tl1_tl2 tl2_tl4 tl4_tl3 tl3_ls"/>
            <route id="UW_LW0" edges="uw_tl1 tl1_tl3 tl3_lw"/>
            <route id="UW_LW1" edges="uw_tl1 tl1_tl2 tl2_tl4 tl4_tl3 tl3_lw"/>
            <route id="LW_LS" edges="lw_tl3 tl3_ls"/>
            <route id="LW_RS0" edges="lw_tl3 tl3_tl4 tl4_rs"/>
            <route id="LW_RS1" edges="lw_tl3 tl3_tl1 tl1_tl2 tl2_tl4 tl4_rs"/>
            <route id="LW_LE0" edges="lw_tl3 tl3_tl4 tl4_le"/>
            <route id="LW_LE1" edges="lw_tl3 tl3_tl1 tl1_tl2 tl2_tl4 tl4_le"/>
            <route id="LW_UE0" edges="lw_tl3 tl3_tl4 tl4_tl2 tl2_ue"/>
            <route id="LW_UE1" edges="lw_tl3 tl3_tl1 tl1_tl2 tl2_ue"/>
            <route id="LW_LN0" edges="lw_tl3 tl3_tl4 tl4_tl2 tl2_tl1 tl1_ln"/>
            <route id="LW_LN1" edges="lw_tl3 tl3_tl1 tl1_ln"/>
            <route id="LW_RN0" edges="lw_tl3 tl3_tl4 tl4_tl2 tl2_rn"/>
            <route id="LW_RN1" edges="lw_tl3 tl3_tl1 tl1_tl2 tl2_rn"/>
            <route id="LW_UW0" edges="lw_tl3 tl3_tl1 tl1_uw"/>
            <route id="LW_UW1" edges="lw_tl3 tl3_tl4 tl4_tl2 tl2_tl1 tl1_uw"/>
            <route id="LS_RS0" edges="ls_tl3 tl3_tl4 tl4_rs"/>
            <route id="LS_RS1" edges="ls_tl3 tl3_tl1 tl1_tl2 tl2_tl4 tl4_rs"/>
            <route id="LS_LE0" edges="ls_tl3 tl3_tl4 tl4_le"/>
            <route id="LS_LE1" edges="ls_tl3 tl3_tl1 tl1_tl2 tl2_tl4 tl4_le"/>
            <route id="LS_UE0" edges="ls_tl3 tl3_tl4 tl4_tl2 tl2_ue"/>
            <route id="LS_UE1" edges="ls_tl3 tl3_tl1 tl1_tl2 tl2_ue"/>
            <route id="LS_RN0" edges="ls_tl3 tl3_tl4 tl4_tl2 tl2_rn"/>
            <route id="LS_RN1" edges="ls_tl3 tl3_tl1 tl1_tl2 tl2_rn"/>
            <route id="LS_LN0" edges="ls_tl3 tl3_tl1 tl1_ln"/>
            <route id="LS_LN1" edges="ls_tl3 tl3_tl4 tl4_tl2 tl2_tl1 tl1_ln"/>
            <route id="LS_UW0" edges="ls_tl3 tl3_tl4 tl4_tl2 tl2_tl1 tl1_uw"/>
            <route id="LS_UW1" edges="ls_tl3 tl3_tl1 tl1_uw"/>
            <route id="LS_LW" edges="ls_tl3 tl3_lw"/>
            <route id="RS_LE" edges="rs_tl4 tl4_le"/>
            <route id="RS_UE0" edges="rs_tl4 tl4_tl2 tl2_ue"/>
            <route id="RS_UE1" edges="rs_tl4 tl4_tl3 tl3_tl1 tl1_tl2 tl2_ue"/>
            <route id="RS_RN0" edges="rs_tl4 tl4_tl2 tl2_rn"/>
            <route id="RS_RN1" edges="rs_tl4 tl4_tl3 tl3_tl1 tl1_tl2 tl2_rn"/>
            <route id="RS_LN0" edges="rs_tl4 tl4_tl2 tl2_tl1 tl1_ln"/>
            <route id="RS_LN1" edges="rs_tl4 tl4_tl3 tl3_tl1 tl1_ln"/>
            <route id="RS_UW0" edges="rs_tl4 tl4_tl2 tl2_tl1 tl1_uw"/> 
            <route id="RS_UW1" edges="rs_tl4 tl4_tl3 tl3_tl1 tl1_uw"/>
            <route id="RS_LW0" edges="rs_tl4 tl4_tl3 tl3_lw"/>
            <route id="RS_LW1" edges="rs_tl4 tl4_tl2 tl2_tl1 tl1_tl3 tl3_lw"/> 
            <route id="RS_LS0" edges="rs_tl4 tl4_tl3 tl3_ls"/>
            <route id="RS_LS1" edges="rs_tl4 tl4_tl2 tl2_tl1 tl1_tl3 tl3_ls"/>
            <route id="LE_UE0" edges="le_tl4 tl4_tl2 tl2_ue"/>
            <route id="LE_UE1" edges="le_tl4 tl4_tl3 tl3_tl1 tl1_tl2 tl2_ue"/>
            <route id="LE_RN0" edges="le_tl4 tl4_tl2 tl2_rn"/>
            <route id="LE_RN1" edges="le_tl4 tl4_tl3 tl3_tl1 tl1_tl2 tl2_rn"/>
            <route id="LE_LN0" edges="le_tl4 tl4_tl2 tl2_tl1 tl1_ln"/>
            <route id="LE_LN1" edges="le_tl4 tl4_tl3 tl3_tl1 tl1_ln"/>
            <route id="LE_UW0" edges="le_tl4 tl4_tl2 tl2_tl1 tl1_uw"/>
            <route id="LE_UW1" edges="le_tl4 tl4_tl3 tl3_tl1 tl1_uw"/>
            <route id="LE_LW0" edges="le_tl4 tl4_tl3 tl3_lw"/>
            <route id="LE_LW1" edges="le_tl4 tl4_tl2 tl2_tl1 tl1_tl3 tl3_lw"/>
            <route id="LE_LS0" edges="le_tl4 tl4_tl3 tl3_ls"/>
            <route id="LE_LS1" edges="le_tl4 tl4_tl2 tl2_tl1 tl1_tl3 tl3_ls"/>
            <route id="LE_RS" edges="le_tl4 tl4_rs"/>
            <route id="UE_RN" edges="ue_tl2 tl2_rn"/>
            <route id="UE_LN0" edges="ue_tl2 tl2_tl1 tl1_ln"/>
            <route id="UE_LN1" edges="ue_tl2 tl2_tl4 tl4_tl3 tl3_tl1 tl1_ln"/>
            <route id="UE_UW0" edges="ue_tl2 tl2_tl1 tl1_uw"/>
            <route id="UE_UW1" edges="ue_tl2 tl2_tl4 tl4_tl3 tl3_tl1 tl1_uw"/>
            <route id="UE_LW0" edges="ue_tl2 tl2_tl1 tl1_tl3 tl3_lw"/>
            <route id="UE_LW1" edges="ue_tl2 tl2_tl4 tl4_tl3 tl3_lw"/>
            <route id="UE_LS0" edges="ue_tl2 tl2_tl1 tl1_tl3 tl3_ls"/>
            <route id="UE_LS1" edges="ue_tl2 tl2_tl4 tl4_tl3 tl3_ls"/>
            <route id="UE_RS0" edges="ue_tl2 tl2_tl4 tl4_rs"/>
            <route id="UE_RS1" edges="ue_tl2 tl2_tl1 tl1_tl3 tl3_tl4 tl4_rs"/>
            <route id="UE_LE0" edges="ue_tl2 tl2_tl4 tl4_le"/>
            <route id="UE_LE1" edges="ue_tl2 tl2_tl1 tl1_tl3 tl3_tl4 tl4_le"/>
            <route id="RN_LN0" edges="rn_tl2 tl2_tl1 tl1_ln"/>
            <route id="RN_LN1" edges="rn_tl2 tl2_tl4 tl4_tl3 tl3_tl1 tl1_ln"/>
            <route id="RN_UW0" edges="rn_tl2 tl2_tl1 tl1_uw"/>
            <route id="RN_UW1" edges="rn_tl2 tl2_tl4 tl4_tl3 tl3_tl1 tl1_uw"/>
            <route id="RN_LW0" edges="rn_tl2 tl2_tl1 tl1_tl3 tl3_lw"/>
            <route id="RN_LW1" edges="rn_tl2 tl2_tl4 tl4_tl3 tl3_lw"/>
            <route id="RN_LS0" edges="rn_tl2 tl2_tl1 tl1_tl3 tl3_ls"/>
            <route id="RN_LS1" edges="rn_tl2 tl2_tl4 tl4_tl3 tl3_ls"/>
            <route id="RN_RS0" edges="rn_tl2 tl2_tl4 tl4_rs"/>
            <route id="RN_RS1" edges="rn_tl2 tl2_tl1 tl1_tl3 tl3_tl4 tl4_rs"/>
            <route id="RN_LE0" edges="rn_tl2 tl2_tl4 tl4_le"/>
            <route id="RN_LE1" edges="rn_tl2 tl2_tl1 tl1_tl3 tl3_tl4 tl4_le"/>
            <route id="RN_UE" edges="rn_tl2 tl2_ue"/>
            <route id="LN_UW" edges="ln_tl1 tl1_uw"/>
            <route id="LN_LW0" edges="ln_tl1 tl1_tl3 tl3_lw"/>
            <route id="LN_LW1" edges="ln_tl1 tl1_tl2 tl2_tl4 tl4_tl3 tl3_lw"/>
            <route id="LN_LS0" edges="ln_tl1 tl1_tl3 tl3_ls"/>
            <route id="LN_LS1" edges="ln_tl1 tl1_tl2 tl2_tl4 tl4_tl3 tl3_ls"/>
            <route id="LN_RS0" edges="ln_tl1 tl1_tl3 tl3_tl4 tl4_rs"/>
            <route id="LN_RS1" edges="ln_tl1 tl1_tl2 tl2_tl4 tl4_rs"/>
            <route id="LN_LE0" edges="ln_tl1 tl1_tl3 tl3_tl4 tl4_le"/>
            <route id="LN_LE1" edges="ln_tl1 tl1_tl2 tl2_tl4 tl4_le"/>
            <route id="LN_UE0" edges="ln_tl1 tl1_tl2 tl2_ue"/>
            <route id="LN_UE1" edges="ln_tl1 tl1_tl3 tl3_tl4 tl4_tl2 tl2_ue"/>
            <route id="LN_RN0" edges="ln_tl1 tl1_tl2 tl2_rn"/>
            <route id="LN_RN1" edges="ln_tl1 tl1_tl3 tl3_tl4 tl4_tl2 tl2_rn"/>
    <vehicle id="LE_LW0_0" type="standard_car" route="LE_LW0" depart="16.0" departLane="random" departSpeed="10" />
    <vehicle id="LW_LE0_1" type="standard_car" route="LW_LE0" depart="16.0" departLane="random" departSpeed="10" />
    <vehicle id="LS_LN0_2" type="standard_car" route="LS_LN0" depart="36.0" departLane="random" departSpeed="10" />
    <vehicle id="UE_LN0_3" type="standard_car" route="UE_LN0" depart="44.0" departLane="random" departSpeed="10" />
    <vehicle id="LE_LW0_4" type="standard_car" route="LE_LW0" depart="48.0" departLane="random" departSpeed="10" />
    <vehicle id="UE_UW0_5" type="standard_car" route="UE_UW0" depart="56.0" departLane="random" departSpeed="10" />
    <vehicle id="UE_UW0_6" type="standard_car" route="UE_UW0" depart="70.0" departLane="random" departSpeed="10" />
    <vehicle id="LS_UW1_7" type="standard_car" route="LS_UW1" depart="75.0" departLane="random" departSpeed="10" />
    <vehicle id="LN_UW_8" type="standard_car" route="LN_UW" depart="78.0" departLane="random" departSpeed="10" />
    <vehicle id="RS_UE0_9" type="standard_car" route="RS_UE0" depart="80.0" departLane="random" departSpeed="10" />
    <vehicle id="LS_LW_10" type="standard_car" route="LS_LW" depart="83.0" departLane="random" departSpeed="10" />
    <vehicle id="LS_LN0_11" type="standard_car" route="LS_LN0" depart="83.0" departLane="random" departSpeed="10" />
    <vehicle id="RN_RS0_12" type="standard_car" route="RN_RS0" depart="85.0" departLane="random" departSpeed="10" />
    <vehicle id="LE_RS_13" type="standard_car" route="LE_RS" depart="86.0" departLane="random" departSpeed="10" />
    <vehicle id="UW_LW0_14" type="standard_car" route="UW_LW0" depart="98.0" departLane="random" departSpeed="10" />
    <vehicle id="LW_RS0_15" type="standard_car" route="LW_RS0" depart="99.0" departLane="random" departSpeed="10" />
    <vehicle id="LS_LW_16" type="standard_car" route="LS_LW" depart="111.0" departLane="random" departSpeed="10" />
    <vehicle id="LN_LE0_17" type="standard_car" route="LN_LE0" depart="114.0" departLane="random" departSpeed="10" />
    <vehicle id="UE_UW0_18" type="standard_car" route="UE_UW0" depart="117.0" departLane="random" departSpeed="10" />
    <vehicle id="RS_LW0_19" type="standard_car" route="RS_LW0" depart="117.0" departLane="random" departSpeed="10" />
    <vehicle id="LW_LN1_20" type="standard_car" route="LW_LN1" depart="126.0" departLane="random" departSpeed="10" />
    <vehicle id="RS_LS1_21" type="standard_car" route="RS_LS1" depart="128.0" departLane="random" departSpeed="10" />
    <vehicle id="LE_LW0_22" type="standard_car" route="LE_LW0" depart="129.0" departLane="random" departSpeed="10" />
    <vehicle id="UE_UW0_23" type="standard_car" route="UE_UW0" depart="130.0" departLane="random" departSpeed="10" />
    <vehicle id="RN_RS0_24" type="standard_car" route="RN_RS0" depart="130.0" departLane="random" departSpeed="10" />
    <vehicle id="RS_LW0_25" type="standard_car" route="RS_LW0" depart="133.0" departLane="random" departSpeed="10" />
    <vehicle id="UW_UE0_26" type="standard_car" route="UW_UE0" depart="135.0" departLane="random" departSpeed="10" />
    <vehicle id="RN_RS0_27" type="standard_car" route="RN_RS0" depart="135.0" departLane="random" departSpeed="10" />
    <vehicle id="UE_UW0_28" type="standard_car" route="UE_UW0" depart="137.0" departLane="random" departSpeed="10" />
    <vehicle id="UW_LN_29" type="standard_car" route="UW_LN" depart="139.0" departLane="random" departSpeed="10" />
    <vehicle id="UE_UW0_30" type="standard_car" route="UE_UW0" depart="139.0" departLane="random" departSpeed="10" />
    <vehicle id="LS_LN0_31" type="standard_car" route="LS_LN0" depart="145.0" departLane="random" departSpeed="10" />
    <vehicle id="LN_UE0_32" type="standard_car" route="LN_UE0" depart="148.0" departLane="random" departSpeed="10" />
    <vehicle id="LE_LW0_33" type="standard_car" route="LE_LW0" depart="148.0" departLane="random" departSpeed="10" />
    <vehicle id="LE_LS0_34" type="standard_car" route="LE_LS0" depart="152.0" departLane="random" departSpeed="10" />
    <vehicle id="LW_LN1_35" type="standard_car" route="LW_LN1" depart="160.0" departLane="random" departSpeed="10" />
    <vehicle id="LN_LS0_36" type="standard_car" route="LN_LS0" depart="165.0" departLane="random" departSpeed="10" />
    <vehicle id="UW_UE0_37" type="standard_car" route="UW_UE0" depart="166.0" departLane="random" departSpeed="10" />
    <vehicle id="RS_LE_38" type="standard_car" route="RS_LE" depart="167.0" departLane="random" departSpeed="10" />
    <vehicle id="LE_LN1_39" type="standard_car" route="LE_LN1" depart="170.0" departLane="random" departSpeed="10" />
    <vehicle id="UE_UW0_40" type="standard_car" route="UE_UW0" depart="170.0" departLane="random" departSpeed="10" />
    <vehicle id="LW_LE0_41" type="standard_car" route="LW_LE0" depart="170.0" departLane="random" departSpeed="10" />
    <vehicle id="LW_LE0_42" type="standard_car" route="LW_LE0" depart="179.0" departLane="random" departSpeed="10" />
    <vehicle id="LW_UE0_43" type="standard_car" route="LW_UE0" depart="181.0" departLane="random" departSpeed="10" />
    <vehicle id="RN_RS0_44" type="standard_car" route="RN_RS0" depart="181.0" departLane="random" departSpeed="10" />
    <vehicle id="LN_LE0_45" type="standard_car" route="LN_LE0" depart="181.0" departLane="random" departSpeed="10" />
    <vehicle id="LN_LS0_46" type="standard_car" route="LN_LS0" depart="186.0" departLane="random" departSpeed="10" />
    <vehicle id="LW_UW0_47" type="standard_car" route="LW_UW0" depart="189.0" departLane="random" departSpeed="10" />
    <vehicle id="UE_UW0_48" type="standard_car" route="UE_UW0" depart="190.0" departLane="random" departSpeed="10" />
    <vehicle id="LN_LE0_49" type="standard_car" route="LN_LE0" depart="193.0" departLane="random" departSpeed="10" />
    <vehicle id="LN_LS0_50" type="standard_car" route="LN_LS0" depart="195.0" departLane="random" departSpeed="10" />
    <vehicle id="LN_LS0_51" type="standard_car" route="LN_LS0" depart="200.0" departLane="random" departSpeed="10" />
    <vehicle id="LS_LW_52" type="standard_car" route="LS_LW" depart="200.0" departLane="random" departSpeed="10" />
    <vehicle id="LE_LW0_53" type="standard_car" route="LE_LW0" depart="201.0" departLane="random" departSpeed="10" />
    <vehicle id="RS_UW0_54" type="standard_car" route="RS_UW0" depart="204.0" departLane="random" departSpeed="10" />
    <vehicle id="LE_LW0_55" type="standard_car" route="LE_LW0" depart="204.0" departLane="random" departSpeed="10" />
    <vehicle id="LW_LS_56" type="standard_car" route="LW_LS" depart="206.0" departLane="random" departSpeed="10" />
    <vehicle id="LE_RN0_57" type="standard_car" route="LE_RN0" depart="207.0" departLane="random" departSpeed="10" />
    <vehicle id="LN_LW0_58" type="standard_car" route="LN_LW0" depart="208.0" departLane="random" departSpeed="10" />
    <vehicle id="RS_LE_59" type="standard_car" route="RS_LE" depart="216.0" departLane="random" departSpeed="10" />
    <vehicle id="UW_LS0_60" type="standard_car" route="UW_LS0" depart="217.0" departLane="random" departSpeed="10" />
    <vehicle id="LE_RN0_61" type="standard_car" route="LE_RN0" depart="219.0" departLane="random" departSpeed="10" />
    <vehicle id="UW_LS0_62" type="standard_car" route="UW_LS0" depart="220.0" departLane="random" departSpeed="10" />
    <vehicle id="UE_UW0_63" type="standard_car" route="UE_UW0" depart="220.0" departLane="random" departSpeed="10" />
    <vehicle id="UE_RS0_64" type="standard_car" route="UE_RS0" depart="220.0" departLane="random" departSpeed="10" />
    <vehicle id="UE_LS0_65" type="standard_car" route="UE_LS0" depart="221.0" departLane="random" departSpeed="10" />
    <vehicle id="LS_LN0_66" type="standard_car" route="LS_LN0" depart="221.0" departLane="random" departSpeed="10" />
    <vehicle id="LS_LN0_67" type="standard_car" route="LS_LN0" depart="221.0" departLane="random" departSpeed="10" />
    <vehicle id="UW_UE0_68" type="standard_car" route="UW_UE0" depart="224.0" departLane="random" departSpeed="10" />
    <vehicle id="RS_LS0_69" type="standard_car" route="RS_LS0" depart="225.0" departLane="random" departSpeed="10" />
    <vehicle id="LS_UE1_70" type="standard_car" route="LS_UE1" depart="225.0" departLane="random" departSpeed="10" />
    <vehicle id="UW_UE0_71" type="standard_car" route="UW_UE0" depart="225.0" departLane="random" departSpeed="10" />
    <vehicle id="UE_LN0_72" type="standard_car" route="UE_LN0" depart="228.0" departLane="random" departSpeed="10" />
    <vehicle id="UE_RS0_73" type="standard_car" route="UE_RS0" depart="230.0" departLane="random" departSpeed="10" />
    <vehicle id="LE_LW0_74" type="standard_car" route="LE_LW0" depart="232.0" departLane="random" departSpeed="10" />
    <vehicle id="LN_LS0_75" type="standard_car" route="LN_LS0" depart="233.0" departLane="random" departSpeed="10" />
    <vehicle id="LW_LE0_76" type="standard_car" route="LW_LE0" depart="233.0" departLane="random" departSpeed="10" />
    <vehicle id="LE_LW0_77" type="standard_car" route="LE_LW0" depart="235.0" departLane="random" departSpeed="10" />
    <vehicle id="LE_RN0_78" type="standard_car" route="LE_RN0" depart="236.0" departLane="random" departSpeed="10" />
    <vehicle id="LS_LW_79" type="standard_car" route="LS_LW" depart="236.0" departLane="random" departSpeed="10" />
    <vehicle id="LN_LW0_80" type="standard_car" route="LN_LW0" depart="236.0" departLane="random" departSpeed="10" />
    <vehicle id="LE_LW0_81" type="standard_car" route="LE_LW0" depart="240.0" departLane="random" departSpeed="10" />
    <vehicle id="LS_UE1_82" type="standard_car" route="LS_UE1" depart="240.0" departLane="random" departSpeed="10" />
    <vehicle id="LW_RN0_83" type="standard_car" route="LW_RN0" depart="241.0" departLane="random" departSpeed="10" />
    <vehicle id="LS_LN0_84" type="standard_car" route="LS_LN0" depart="241.0" departLane="random" departSpeed="10" />
    <vehicle id="UW_UE0_85" type="standard_car" route="UW_UE0" depart="245.0" departLane="random" departSpeed="10" />
    <vehicle id="UW_UE0_86" type="standard_car" route="UW_UE0" depart="245.0" departLane="random" departSpeed="10" />
    <vehicle id="RN_RS0_87" type="standard_car" route="RN_RS0" depart="246.0" departLane="random" departSpeed="10" />
    <vehicle id="LW_LN1_88" type="standard_car" route="LW_LN1" depart="246.0" departLane="random" departSpeed="10" />
    <vehicle id="RN_RS0_89" type="standard_car" route="RN_RS0" depart="246.0" departLane="random" departSpeed="10" />
    <vehicle id="LW_LE0_90" type="standard_car" route="LW_LE0" depart="248.0" departLane="random" departSpeed="10" />
    <vehicle id="LS_LN0_91" type="standard_car" route="LS_LN0" depart="248.0" departLane="random" departSpeed="10" />
    <vehicle id="LN_LS0_92" type="standard_car" route="LN_LS0" depart="251.0" departLane="random" departSpeed="10" />
    <vehicle id="LN_LS0_93" type="standard_car" route="LN_LS0" depart="253.0" departLane="random" departSpeed="10" />
    <vehicle id="LW_LE1_94" type="standard_car" route="LW_LE1" depart="254.0" departLane="random" departSpeed="10" />
    <vehicle id="RN_RS0_95" type="standard_car" route="RN_RS0" depart="256.0" departLane="random" departSpeed="10" />
    <vehicle id="LN_LW0_96" type="standard_car" route="LN_LW0" depart="258.0" departLane="random" departSpeed="10" />
    <vehicle id="LN_LS0_97" type="standard_car" route="LN_LS0" depart="259.0" departLane="random" departSpeed="10" />
    <vehicle id="LW_RS0_98" type="standard_car" route="LW_RS0" depart="260.0" departLane="random" departSpeed="10" />
    <vehicle id="UW_UE0_99" type="standard_car" route="UW_UE0" depart="261.0" departLane="random" departSpeed="10" />
    <vehicle id="UE_RN_100" type="standard_car" route="UE_RN" depart="261.0" departLane="random" departSpeed="10" />
    <vehicle id="UW_UE0_101" type="standard_car" route="UW_UE0" depart="261.0" departLane="random" departSpeed="10" />
    <vehicle id="LN_LS0_102" type="standard_car" route="LN_LS0" depart="263.0" departLane="random" departSpeed="10" />
    <vehicle id="UE_UW0_103" type="standard_car" route="UE_UW0" depart="264.0" departLane="random" departSpeed="10" />
    <vehicle id="LS_LN0_104" type="standard_car" route="LS_LN0" depart="264.0" departLane="random" departSpeed="10" />
    <vehicle id="LS_LN0_105" type="standard_car" route="LS_LN0" depart="267.0" departLane="random" departSpeed="10" />
    <vehicle id="UE_UW0_106" type="standard_car" route="UE_UW0" depart="268.0" departLane="random" departSpeed="10" />
    <vehicle id="LW_LE0_107" type="standard_car" route="LW_LE0" depart="270.0" departLane="random" departSpeed="10" />
    <vehicle id="LE_RN0_108" type="standard_car" route="LE_RN0" depart="271.0" departLane="random" departSpeed="10" />
    <vehicle id="LN_UW_109" type="standard_car" route="LN_UW" depart="271.0" departLane="random" departSpeed="10" />
    <vehicle id="LE_LW0_110" type="standard_car" route="LE_LW0" depart="273.0" departLane="random" departSpeed="10" />
    <vehicle id="LW_LS_111" type="standard_car" route="LW_LS" depart="275.0" departLane="random" departSpeed="10" />
    <vehicle id="LE_LW0_112" type="standard_car" route="LE_LW0" depart="276.0" departLane="random" departSpeed="10" />
    <vehicle id="LE_LW0_113" type="standard_car" route="LE_LW0" depart="280.0" departLane="random" departSpeed="10" />
    <vehicle id="LW_LE0_114" type="standard_car" route="LW_LE0" depart="286.0" departLane="random" departSpeed="10" />
    <vehicle id="LE_RS_115" type="standard_car" route="LE_RS" depart="287.0" departLane="random" departSpeed="10" />
    <vehicle id="LW_LS_116" type="standard_car" route="LW_LS" depart="287.0" departLane="random" departSpeed="10" />
    <vehicle id="UW_UE0_117" type="standard_car" route="UW_UE0" depart="290.0" departLane="random" departSpeed="10" />
    <vehicle id="RS_UE0_118" type="standard_car" route="RS_UE0" depart="292.0" departLane="random" departSpeed="10" />
    <vehicle id="LN_LS0_119" type="standard_car" route="LN_LS0" depart="294.0" departLane="random" departSpeed="10" />
    <vehicle id="LN_LS0_120" type="standard_car" route="LN_LS0" depart="294.0" departLane="random" departSpeed="10" />
    <vehicle id="LS_LN0_121" type="standard_car" route="LS_LN0" depart="295.0" departLane="random" departSpeed="10" />
    <vehicle id="LE_LN1_122" type="standard_car" route="LE_LN1" depart="296.0" departLane="random" departSpeed="10" />
    <vehicle id="UW_RS0_123" type="standard_car" route="UW_RS0" depart="296.0" departLane="random" departSpeed="10" />
    <vehicle id="LE_LN1_124" type="standard_car" route="LE_LN1" depart="296.0" departLane="random" departSpeed="10" />
    <vehicle id="LE_RS_125" type="standard_car" route="LE_RS" depart="296.0" departLane="random" departSpeed="10" />
    <vehicle id="LW_LS_126" type="standard_car" route="LW_LS" depart="297.0" departLane="random" departSpeed="10" />
    <vehicle id="UE_RN_127" type="standard_car" route="UE_RN" depart="298.0" departLane="random" departSpeed="10" />
    <vehicle id="LW_LE0_128" type="standard_car" route="LW_LE0" depart="299.0" departLane="random" departSpeed="10" />
    <vehicle id="LW_LE0_129" type="standard_car" route="LW_LE0" depart="299.0" departLane="random" departSpeed="10" />
    <vehicle id="RN_RS0_130" type="standard_car" route="RN_RS0" depart="300.0" departLane="random" departSpeed="10" />
    <vehicle id="LW_RS0_131" type="standard_car" route="LW_RS0" depart="300.0" departLane="random" departSpeed="10" />
    <vehicle id="UW_LS0_132" type="standard_car" route="UW_LS0" depart="302.0" departLane="random" departSpeed="10" />
    <vehicle id="UE_UW0_133" type="standard_car" route="UE_UW0" depart="303.0" departLane="random" departSpeed="10" />
    <vehicle id="UW_UE0_134" type="standard_car" route="UW_UE0" depart="303.0" departLane="random" departSpeed="10" />
    <vehicle id="LS_LW_135" type="standard_car" route="LS_LW" depart="306.0" departLane="random" departSpeed="10" />
    <vehicle id="LS_LW_136" type="standard_car" route="LS_LW" depart="307.0" departLane="random" departSpeed="10" />
    <vehicle id="LW_LE0_137" type="standard_car" route="LW_LE0" depart="310.0" departLane="random" departSpeed="10" />
    <vehicle id="UE_UW0_138" type="standard_car" route="UE_UW0" depart="311.0" departLane="random" departSpeed="10" />
    <vehicle id="LN_LS0_139" type="standard_car" route="LN_LS0" depart="314.0" departLane="random" departSpeed="10" />
    <vehicle id="LN_UW_140" type="standard_car" route="LN_UW" depart="314.0" departLane="random" departSpeed="10" />
    <vehicle id="LW_LE0_141" type="standard_car" route="LW_LE0" depart="314.0" departLane="random" departSpeed="10" />
    <vehicle id="UE_LW1_142" type="standard_car" route="UE_LW1" depart="315.0" departLane="random" departSpeed="10" />
    <vehicle id="LN_LS0_143" type="standard_car" route="LN_LS0" depart="316.0" departLane="random" departSpeed="10" />
    <vehicle id="RN_RS0_144" type="standard_car" route="RN_RS0" depart="316.0" departLane="random" departSpeed="10" />
    <vehicle id="LW_RS0_145" type="standard_car" route="LW_RS0" depart="317.0" departLane="random" departSpeed="10" />
    <vehicle id="RS_UE0_146" type="standard_car" route="RS_UE0" depart="318.0" departLane="random" departSpeed="10" />
    <vehicle id="LN_UE0_147" type="standard_car" route="LN_UE0" depart="319.0" departLane="random" departSpeed="10" />
    <vehicle id="RS_LS1_148" type="standard_car" route="RS_LS1" depart="321.0" departLane="random" departSpeed="10" />
    <vehicle id="LS_LE0_149" type="standard_car" route="LS_LE0" depart="322.0" departLane="random" departSpeed="10" />
    <vehicle id="UW_UE0_150" type="standard_car" route="UW_UE0" depart="323.0" departLane="random" departSpeed="10" />
    <vehicle id="LS_UE1_151" type="standard_car" route="LS_UE1" depart="323.0" departLane="random" departSpeed="10" />
    <vehicle id="LN_LS0_152" type="standard_car" route="LN_LS0" depart="324.0" departLane="random" departSpeed="10" />
    <vehicle id="RN_RS0_153" type="standard_car" route="RN_RS0" depart="324.0" departLane="random" departSpeed="10" />
    <vehicle id="RN_RS0_154" type="standard_car" route="RN_RS0" depart="325.0" departLane="random" departSpeed="10" />
    <vehicle id="LN_LS0_155" type="standard_car" route="LN_LS0" depart="325.0" departLane="random" departSpeed="10" />
    <vehicle id="UE_UW0_156" type="standard_car" route="UE_UW0" depart="325.0" departLane="random" departSpeed="10" />
    <vehicle id="LW_LE0_157" type="standard_car" route="LW_LE0" depart="326.0" departLane="random" departSpeed="10" />
    <vehicle id="RN_RS0_158" type="standard_car" route="RN_RS0" depart="326.0" departLane="random" departSpeed="10" />
    <vehicle id="LS_LN0_159" type="standard_car" route="LS_LN0" depart="327.0" departLane="random" departSpeed="10" />
    <vehicle id="LE_LW0_160" type="standard_car" route="LE_LW0" depart="328.0" departLane="random" departSpeed="10" />
    <vehicle id="LN_LS0_161" type="standard_car" route="LN_LS0" depart="329.0" departLane="random" departSpeed="10" />
    <vehicle id="UW_RN0_162" type="standard_car" route="UW_RN0" depart="329.0" departLane="random" departSpeed="10" />
    <vehicle id="LW_LE0_163" type="standard_car" route="LW_LE0" depart="330.0" departLane="random" departSpeed="10" />
    <vehicle id="RS_LW0_164" type="standard_car" route="RS_LW0" depart="330.0" departLane="random" departSpeed="10" />
    <vehicle id="LN_LS0_165" type="standard_car" route="LN_LS0" depart="331.0" departLane="random" departSpeed="10" />
    <vehicle id="RS_LN0_166" type="standard_car" route="RS_LN0" depart="334.0" departLane="random" departSpeed="10" />
    <vehicle id="LS_LN0_167" type="standard_car" route="LS_LN0" depart="336.0" departLane="random" departSpeed="10" />
    <vehicle id="LW_RS0_168" type="standard_car" route="LW_RS0" depart="337.0" departLane="random" departSpeed="10" />
    <vehicle id="LN_RN1_169" type="standard_car" route="LN_RN1" depart="340.0" departLane="random" departSpeed="10" />
    <vehicle id="UW_LN_170" type="standard_car" route="UW_LN" depart="342.0" departLane="random" departSpeed="10" />
    <vehicle id="LN_UW_171" type="standard_car" route="LN_UW" depart="342.0" departLane="random" departSpeed="10" />
    <vehicle id="LW_LE0_172" type="standard_car" route="LW_LE0" depart="343.0" departLane="random" departSpeed="10" />
    <vehicle id="LN_RS0_173" type="standard_car" route="LN_RS0" depart="343.0" departLane="random" departSpeed="10" />
    <vehicle id="UE_LN0_174" type="standard_car" route="UE_LN0" depart="344.0" departLane="random" departSpeed="10" />
    <vehicle id="LS_UW1_175" type="standard_car" route="LS_UW1" depart="345.0" departLane="random" departSpeed="10" />
    <vehicle id="UW_LW1_176" type="standard_car" route="UW_LW1" depart="346.0" departLane="random" departSpeed="10" />
    <vehicle id="LN_LS0_177" type="standard_car" route="LN_LS0" depart="346.0" departLane="random" departSpeed="10" />
    <vehicle id="LS_UW1_178" type="standard_car" route="LS_UW1" depart="349.0" departLane="random" departSpeed="10" />
    <vehicle id="LS_LN0_179" type="standard_car" route="LS_LN0" depart="350.0" departLane="random" departSpeed="10" />
    <vehicle id="UW_RS0_180" type="standard_car" route="UW_RS0" depart="353.0" departLane="random" departSpeed="10" />
    <vehicle id="LW_LN1_181" type="standard_car" route="LW_LN1" depart="354.0" departLane="random" departSpeed="10" />
    <vehicle id="LS_LE0_182" type="standard_car" route="LS_LE0" depart="355.0" departLane="random" departSpeed="10" />
    <vehicle id="UE_UW0_183" type="standard_car" route="UE_UW0" depart="355.0" departLane="random" departSpeed="10" />
    <vehicle id="UW_UE0_184" type="standard_car" route="UW_UE0" depart="356.0" departLane="random" departSpeed="10" />
    <vehicle id="UW_LN_185" type="standard_car" route="UW_LN" depart="357.0" departLane="random" departSpeed="10" />
    <vehicle id="LE_RS_186" type="standard_car" route="LE_RS" depart="358.0" departLane="random" departSpeed="10" />
    <vehicle id="RN_RS0_187" type="standard_car" route="RN_RS0" depart="359.0" departLane="random" departSpeed="10" />
    <vehicle id="UW_LN_188" type="standard_car" route="UW_LN" depart="362.0" departLane="random" departSpeed="10" />
    <vehicle id="UE_UW0_189" type="standard_car" route="UE_UW0" depart="363.0" departLane="random" departSpeed="10" />
    <vehicle id="LN_LS0_190" type="standard_car" route="LN_LS0" depart="364.0" departLane="random" departSpeed="10" />