<routes>
            <vType accel="1.0" decel="4.5" id="standard_car" length="5.0" minGap="2.5" maxSpeed="25" sigma="0.5" />

            <route id="UW_LN" edges="uw_tl1 tl1_ln"/>
            <route id="UW_RN0" edges="uw_tl1 tl1_tl2 tl2_rn"/>
            <route id="UW_RN1" edges="uw_tl1 tl1_tl3 tl3_tl4 tl4_tl2 tl2_rn"/>
            <route id="UW_UE0" edges="uw_tl1 tl1_tl2 tl2_ue"/>
            <route id="UW_UE1" edges="uw_tl1 tl1_tl3 tl3_tl4 tl4_tl2 tl2_ue"/>
            <route id="UW_LE0" edges="uw_tl1 tl1_tl2 tl2_tl4 tl4_le"/>
            <route id="UW_LE1" edges="uw_tl1 tl1_tl3 tl3_tl4 tl4_le"/>
            <route id="UW_RS0" edges="uw_tl1 tl1_tl2 tl2_tl4 tl4_rs"/>
            <route id="UW_RS1" edges="uw_tl1 tl1_tl3 tl3_tl4 tl4_rs"/>
            <route id="UW_LS0" edges="uw_tl1 tl1_tl3 tl3_ls"/>
            <route id="UW_LS1" edges="uw_tl1 tl1_tl2 tl2_tl4 tl4_tl3 tl3_ls"/>
            <route id="UW_LW0" edges="uw_tl1 tl1_tl3 tl3_lw"/>
            <route id="UW_LW1" edges="uw_tl1 tl1_tl2 tl2_tl4 tl4_tl3 tl3_lw"/>
            <route id="LW_LS" edges="lw_tl3 tl3_ls"/>
            <route id="LW_RS0" edges="lw_tl3 tl3_tl4 tl4_rs"/>
            <route id="LW_RS1" edges="lw_tl3 tl3_tl1 tl1_tl2 tl2_tl4 tl4_rs"/>
            <route id="LW_LE0" edges="lw_tl3 tl3_tl4 tl4_le"/>
            <route id="LW_LE1" edges="lw_tl3 tl3_tl1 tl1_tl2 tl2_tl4 tl4_le"/>
            <route id="LW_UE0" edges="lw_tl3 tl3_tl4 tl4_tl2 tl2_ue"/>
            <route id="LW_UE1" edges="lw_tl3 tl3_tl1 tl1_tl2 tl2_ue"/>
            <route id="LW_LN0" edges="lw_tl3 tl3_tl4 tl4_tl2 tl2_tl1 tl1_ln"/>
            <route id="LW_LN1" edges="lw_tl3 tl3_tl1 tl1_ln"/>
            <route id="LW_RN0" edges="lw_tl3 tl3_tl4 tl4_tl2 tl2_rn"/>
            <route id="LW_RN1" edges="lw_tl3 tl3_tl1 tl1_tl2 tl2_rn"/>
            <route id="LW_UW0" edges="lw_tl3 tl3_tl1 tl1_uw"/>
            <route id="LW_UW1" edges="lw_tl3 tl3_tl4 tl4_tl2 tl2_tl1 tl1_uw"/>
            <route id="LS_RS0" edges="ls_tl3 tl3_tl4 tl4_rs"/>
            <route id="LS_RS1" edges="ls_tl3 tl3_tl1 tl1_tl2 tl2_tl4 tl4_rs"/>
            <route id="LS_LE0" edges="ls_tl3 tl3_tl4 tl4_le"/>
            <route id="LS_LE1" edges="ls_tl3 tl3_tl1 tl1_tl2 tl2_tl4 tl4_le"/>
            <route id="LS_UE0" edges="ls_tl3 tl3_tl4 tl4_tl2 tl2_ue"/>
            <route id="LS_UE1" edges="ls_tl3 tl3_tl1 tl1_tl2 tl2_ue"/>
            <route id="LS_RN0" edges="ls_tl3 tl3_tl4 tl4_tl2 tl2_rn"/>
            <route id="LS_RN1" edges="ls_tl3 tl3_tl1 tl1_tl2 tl2_rn"/>
            <route id="LS_LN0" edges="ls_tl3 tl3_tl1 tl1_ln"/>
            <route id="LS_LN1" edges="ls_tl3 tl3_tl4 tl4_tl2 tl2_tl1 tl1_ln"/>
            <route id="LS_UW0" edges="ls_tl3 tl3_tl4 tl4_tl2 tl2_tl1 tl1_uw"/>
            <route id="LS_UW1" edges="ls_tl3 tl3_tl1 tl1_uw"/>
            <route id="LS_LW" edges="ls_tl3 tl3_lw"/>
            <route id="RS_LE" edges="rs_tl4 tl4_le"/>
            <route id="RS_UE0" edges="rs_tl4 tl4_tl2 tl2_ue"/>
            <route id="RS_UE1" edges="rs_tl4 tl4_tl3 tl3_tl1 tl1_tl2 tl2_ue"/>
            <route id="RS_RN0" edges="rs_tl4 tl4_tl2 tl2_rn"/>
            <route id="RS_RN1" edges="rs_tl4 tl4_tl3 tl3_tl1 tl1_tl2 tl2_rn"/>
            <route id="RS_LN0" edges="rs_tl4 tl4_tl2 tl2_tl1 tl1_ln"/>
            <route id="RS_LN1" edges="rs_tl4 tl4_tl3 tl3_tl1 tl1_ln"/>
            <route id="RS_UW0" edges="rs_tl4 tl4_tl2 tl2_tl1 tl1_uw"/> 
            <route id="RS_UW1" edges="rs_tl4 tl4_tl3 tl3_tl1 tl1_uw"/>
            <route id="RS_LW0" edges="rs_tl4 tl4_tl3 tl3_lw"/>
            <route id="RS_LW1" edges="rs_tl4 tl4_tl2 tl2_tl1 tl1_tl3 tl3_lw"/> 
            <route id="RS_LS0" edges="rs_tl4 tl4_tl3 tl3_ls"/>
            <route id="RS_LS1" edges="rs_tl4 tl4_tl2 tl2_tl1 tl1_tl3 tl3_ls"/>
            <route id="LE_UE0" edges="le_tl4 tl4_tl2 tl2_ue"/>
            <route id="LE_UE1" edges="le_tl4 tl4_tl3 tl3_tl1 tl1_tl2 tl2_ue"/>
            <route id="LE_RN0" edges="le_tl4 tl4_tl2 tl2_rn"/>
            <route id="LE_RN1" edges="le_tl4 tl4_tl3 tl3_tl1 tl1_tl2 tl2_rn"/>
            <route id="LE_LN0" edges="le_tl4 tl4_tl2 tl2_tl1 tl1_ln"/>
            <route id="LE_LN1" edges="le_tl4 tl4_tl3 tl3_tl1 tl1_ln"/>
            <route id="LE_UW0" edges="le_tl4 tl4_tl2 tl2_tl1 tl1_uw"/>
            <route id="LE_UW1" edges="le_tl4 tl4_tl3 tl3_tl1 tl1_uw"/>
            <route id="LE_LW0" edges="le_tl4 tl4_tl3 tl3_lw"/>
            <route id="LE_LW1" edges="le_tl4 tl4_tl2 tl2_tl1 tl1_tl3 tl3_lw"/>
            <route id="LE_LS0" edges="le_tl4 tl4_tl3 tl3_ls"/>
            <route id="LE_LS1" edges="le_tl4 tl4_tl2 tl2_tl1 tl1_tl3 tl3_ls"/>
            <route id="LE_RS" edges="le_tl4 tl4_rs"/>
            <route id="UE_RN" edges="ue_tl2 tl2_rn"/>
            <route id="UE_LN0" edges="ue_tl2 tl2_tl1 tl1_ln"/>
            <route id="UE_LN1" edges="ue_tl2 tl2_tl4 tl4_tl3 tl3_tl1 tl1_ln"/>
            <route id="UE_UW0" edges="ue_tl2 tl2_tl1 tl1_uw"/>
            <route id="UE_UW1" edges="ue_tl2 tl2_tl4 tl4_tl3 tl3_tl1 tl1_uw"/>
            <route id="UE_LW0" edges="ue_tl2 tl2_tl1 tl1_tl3 tl3_lw"/>
            <route id="UE_LW1" edges="ue_tl2 tl2_tl4 tl4_tl3 tl3_lw"/>
            <route id="UE_LS0" edges="ue_tl2 tl2_tl1 tl1_tl3 tl3_ls"/>
            <route id="UE_LS1" edges="ue_tl2 tl2_tl4 tl4_tl3 tl3_ls"/>
            <route id="UE_RS0" edges="ue_tl2 tl2_tl4 tl4_rs"/>
            <route id="UE_RS1" edges="ue_tl2 tl2_tl1 tl1_tl3 tl3_tl4 tl4_rs"/>
            <route id="UE_LE0" edges="ue_tl2 tl2_tl4 tl4_le"/>
            <route id="UE_LE1" edges="ue_tl2 tl2_tl1 tl1_tl3 tl3_tl4 tl4_le"/>
            <route id="RN_LN0" edges="rn_tl2 tl2_tl1 tl1_ln"/>
            <route id="RN_LN1" edges="rn_tl2 tl2_tl4 tl4_tl3 tl3_tl1 tl1_ln"/>
            <route id="RN_UW0" edges="rn_tl2 tl2_tl1 tl1_uw"/>
            <route id="RN_UW1" edges="rn_tl2 tl2_tl4 tl4_tl3 tl3_tl1 tl1_uw"/>
            <route id="RN_LW0" edges="rn_tl2 tl2_tl1 tl1_tl3 tl3_lw"/>
            <route id="RN_LW1" edges="rn_tl2 tl2_tl4 tl4_tl3 tl3_lw"/>
            <route id="RN_LS0" edges="rn_tl2 tl2_tl1 tl1_tl3 tl3_ls"/>
            <route id="RN_LS1" edges="rn_tl2 tl2_tl4 tl4_tl3 tl3_ls"/>
            <route id="RN_RS0" edges="rn_tl2 tl2_tl4 tl4_rs"/>
            <route id="RN_RS1" edges="rn_tl2 tl2_tl1 tl1_tl3 tl3_tl4 tl4_rs"/>
            <route id="RN_LE0" edges="rn_tl2 tl2_tl4 tl4_le"/>
            <route id="RN_LE1" edges="rn_tl2 tl2_tl1 tl1_tl3 tl3_tl4 tl4_le"/>
            <route id="RN_UE" edges="rn_tl2 tl2_ue"/>
            <route id="LN_UW" edges="ln_tl1 tl1_uw"/>
            <route id="LN_LW0" edges="ln_tl1 tl1_tl3 tl3_lw"/>
            <route id="LN_LW1" edges="ln_tl1 tl1_tl2 tl2_tl4 tl4_tl3 tl3_lw"/>
            <route id="LN_LS0" edges="ln_tl1 tl1_tl3 tl3_ls"/>
            <route id="LN_LS1" edges="ln_tl1 tl1_tl2 tl2_tl4 tl4_tl3 tl3_ls"/>
            <route id="LN_RS0" edges="ln_tl1 tl1_tl3 tl3_tl4 tl4_rs"/>
            <route id="LN_RS1" edges="ln_tl1 tl1_tl2 tl2_tl4 tl4_rs"/>
            <route id="LN_LE0" edges="ln_tl1 tl1_tl3 tl3_tl4 tl4_le"/>
            <route id="LN_LE1" edges="ln_tl1 tl1_tl2 tl2_tl4 tl4_le"/>
            <route id="LN_UE0" edges="ln_tl1 tl1_tl2 tl2_ue"/>
            <route id="LN_UE1" edges="ln_tl1 tl1_tl3 tl3_tl4 tl4_tl2 tl2_ue"/>
            <route id="LN_RN0" edges="ln_tl1 tl1_tl2 tl2_rn"/>
            <route id="LN_RN1" edges="ln_tl1 tl1_tl3 tl3_tl4 tl4_tl2 tl2_rn"/>
    <vehicle id="LE_LW0_0" type="standard_car" route="LE_LW0" depart="8.0" departLane="random" departSpeed="10" />
    <vehicle id="LN_LS0_1" type="standard_car" route="LN_LS0" depart="8.0" departLane="random" departSpeed="10" />
    <vehicle id="LN_LS0_2" type="standard_car" route="LN_LS0" depart="17.0" departLane="random" departSpeed="10" />
    <vehicle id="UE_UW0_3" type="standard_car" route="UE_UW0" depart="17.0" departLane="random" departSpeed="10" />
    <vehicle id="LN_UE0_4" type="standard_car" route="LN_UE0" depart="21.0" departLane="random" departSpeed="10" />
    <vehicle id="UW_UE0_5" type="standard_car" route="UW_UE0" depart="26.0" departLane="random" departSpeed="10" />
    <vehicle id="LE_LW0_6" type="standard_car" route="LE_LW0" depart="63.0" departLane="random" departSpeed="10" />
    <vehicle id="LW_LS_7" type="standard_car" route="LW_LS" depart="68.0" departLane="random" departSpeed="10" />
    <vehicle id="UE_RS0_8" type="standard_car" route="UE_RS0" depart="68.0" departLane="random" departSpeed="10" />
    <vehicle id="LS_LN0_9" type="standard_car" route="LS_LN0" depart="78.0" departLane="random" departSpeed="10" />
    <vehicle id="UE_UW0_10" type="standard_car" route="UE_UW0" depart="104.0" departLane="random" departSpeed="10" />
    <vehicle id="UE_UW0_11" type="standard_car" route="UE_UW0" depart="108.0" departLane="random" departSpeed="10" />
    <vehicle id="LN_LS0_12" type="standard_car" route="LN_LS0" depart="115.0" departLane="random" departSpeed="10" />
    <vehicle id="LN_LS0_13" type="standard_car" route="LN_LS0" depart="117.0" departLane="random" departSpeed="10" />
    <vehicle id="LE_LS0_14" type="standard_car" route="LE_LS0" depart="121.0" departLane="random" departSpeed="10" />
    <vehicle id="LS_LN0_15" type="standard_car" route="LS_LN0" depart="121.0" departLane="random" departSpeed="10" />
    <vehicle id="LW_LE0_16" type="standard_car" route="LW_LE0" depart="124.0" departLane="random" departSpeed="10" />
    <vehicle id="RS_UE0_17" type="standard_car" route="RS_UE0" depart="127.0" departLane="random" departSpeed="10" />
    <vehicle id="LS_UW1_18" type="standard_car" route="LS_UW1" depart="127.0" departLane="random" departSpeed="10" />
    <vehicle id="RS_UW0_19" type="standard_car" route="RS_UW0" depart="130.0" departLane="random" departSpeed="10" />
    <vehicle id="UE_LN0_20" type="standard_car" route="UE_LN0" depart="132.0" departLane="random" departSpeed="10" />
    <vehicle id="LW_LE0_21" type="standard_car" route="LW_LE0" depart="142.0" departLane="random" departSpeed="10" />
    <vehicle id="LN_LS0_22" type="standard_car" route="LN_LS0" depart="142.0" departLane="random" departSpeed="10" />
    <vehicle id="LW_LS_23" type="standard_car" route="LW_LS" depart="143.0" departLane="random" departSpeed="10" />
    <vehicle id="LW_LS_24" type="standard_car" route="LW_LS" depart="152.0" departLane="random" departSpeed="10" />
    <vehicle id="LE_RS_25" type="standard_car" route="LE_RS" depart="155.0" departLane="random" departSpeed="10" />
    <vehicle id="RN_RS0_26" type="standard_car" route="RN_RS0" depart="155.0" departLane="random" departSpeed="10" />
    <vehicle id="RS_UE0_27" type="standard_car" route="RS_UE0" depart="157.0" departLane="random" departSpeed="10" />
    <vehicle id="UW_UE1_28" type="standard_car" route="UW_UE1" depart="159.0" departLane="random" departSpeed="10" />
    <vehicle id="LS_LN0_29" type="standard_car" route="LS_LN0" depart="164.0" departLane="random" departSpeed="10" />
    <vehicle id="LE_RS_30" type="standard_car" route="LE_RS" depart="166.0" departLane="random" departSpeed="10" />
    <vehicle id="LW_LE0_31" type="standard_car" route="LW_LE0" depart="168.0" departLane="random" departSpeed="10" />
    <vehicle id="RS_UW1_32" type="standard_car" route="RS_UW1" depart="170.0" departLane="random" departSpeed="10" />
    <vehicle id="LE_RS_33" type="standard_car" route="LE_RS" depart="171.0" departLane="random" departSpeed="10" />
    <vehicle id="LS_LN0_34" type="standard_car" route="LS_LN0" depart="173.0" departLane="random" departSpeed="10" />
    <vehicle id="LN_UW_35" type="standard_car" route="LN_UW" depart="176.0" departLane="random" departSpeed="10" />
    <vehicle id="LE_RS_36" type="standard_car" route="LE_RS" depart="179.0" departLane="random" departSpeed="10" />
    <vehicle id="LN_LS0_37" type="standard_car" route="LN_LS0" depart="181.0" departLane="random" departSpeed="10" />
    <vehicle id="RS_LS0_38" type="standard_car" route="RS_LS0" depart="185.0" departLane="random" departSpeed="10" />
    <vehicle id="LN_LS0_39" type="standard_car" route="LN_LS0" depart="187.0" departLane="random" departSpeed="10" />
    <vehicle id="UW_UE0_40" type="standard_car" route="UW_UE0" depart="190.0" departLane="random" departSpeed="10" />
    <vehicle id="RS_LE_41" type="standard_car" route="RS_LE" depart="194.0" departLane="random" departSpeed="10" />
    <vehicle id="UE_LN0_42" type="standard_car" route="UE_LN0" depart="194.0" departLane="random" departSpeed="10" />
    <vehicle id="LE_LW0_43" type="standard_car" route="LE_LW0" depart="203.0" departLane="random" departSpeed="10" />
    <vehicle id="LN_LS0_44" type="standard_car" route="LN_LS0" depart="204.0" departLane="random" departSpeed="10" />
    <vehicle id="RN_RS0_45" type="standard_car" route="RN_RS0" depart="207.0" departLane="random" departSpeed="10" />
    <vehicle id="RN_RS0_46" type="standard_car" route="RN_RS0" depart="215.0" departLane="random" departSpeed="10" />
    <vehicle id="UE_RS0_47" type="standard_car" route="UE_RS0" depart="222.0" departLane="random" departSpeed="10" />
    <vehicle id="LS_LE0_48" type="standard_car" route="LS_LE0" depart="223.0" departLane="random" departSpeed="10" />
    <vehicle id="RS_UW0_49" type="standard_car" route="RS_UW0" depart="224.0" departLane="random" departSpeed="10" />
    <vehicle id="RS_UW1_50" type="standard_car" route="RS_UW1" depart="229.0" departLane="random" departSpeed="10" />
    <vehicle id="UE_RN_51" type="standard_car" route="UE_RN" depart="231.0" departLane="random" departSpeed="10" />
    <vehicle id="LS_UW1_52" type="standard_car" route="LS_UW1" depart="235.0" departLane="random" departSpeed="10" />
    <vehicle id="LW_LE0_53" type="standard_car" route="LW_LE0" depart="235.0" departLane="random" departSpeed="10" />
    <vehicle id="LE_RN0_54" type="standard_car" route="LE_RN0" depart="235.0" departLane="random" departSpeed="10" />
    <vehicle id="LN_LS0_55" type="standard_car" route="LN_LS0" depart="235.0" departLane="random" departSpeed="10" />
    <vehicle id="LS_LN0_56" type="standard_car" route="LS_LN0" depart="236.0" departLane="random" departSpeed="10" />
    <vehicle id="UE_UW0_57" type="standard_car" route="UE_UW0" depart="237.0" departLane="random" departSpeed="10" />
    <vehicle id="LS_LW_58" type="standard_car" route="LS_LW" depart="241.0" departLane="random" departSpeed="10" />
    <vehicle id="LS_LN0_59" type="standard_car" route="LS_LN0" depart="241.0" departLane="random" departSpeed="10" />
    <vehicle id="UW_UE0_60" type="standard_car" route="UW_UE0" depart="243.0" departLane="random" departSpeed="10" />
    <vehicle id="UE_RN_61" type="standard_car" route="UE_RN" depart="244.0" departLane="random" departSpeed="10" />
    <vehicle id="LE_LW0_62" type="standard_car" route="LE_LW0" depart="246.0" departLane="random" departSpeed="10" />
    <vehicle id="LN_LS0_63" type="standard_car" route="LN_LS0" depart="248.0" departLane="random" departSpeed="10" />
    <vehicle id="LN_LS0_64" type="standard_car" route="LN_LS0" depart="251.0" departLane="random" departSpeed="10" />
    <vehicle id="UW_UE0_65" type="standard_car" route="UW_UE0" depart="251.0" departLane="random" departSpeed="10" />
    <vehicle id="LS_LN0_66" type="standard_car" route="LS_LN0" depart="253.0" departLane="random" departSpeed="10" />
    <vehicle id="LW_LE0_67" type="standard_car" route="LW_LE0" depart="254.0" departLane="random" departSpeed="10" />
    <vehicle id="LE_RS_68" type="standard_car" route="LE_RS" depart="255.0" departLane="random" departSpeed="10" />
    <vehicle id="LW_LE0_69" type="standard_car" route="LW_LE0" depart="257.0" departLane="random" departSpeed="10" />
    <vehicle id="LN_UW_70" type="standard_car" route="LN_UW" depart="264.0" departLane="random" departSpeed="10" />
    <vehicle id="LS_UE1_71" type="standard_car" route="LS_UE1" depart="264.0" departLane="random" departSpeed="10" />
    <vehicle id="LE_LW0_72" type="standard_car" route="LE_LW0" depart="265.0" departLane="random" departSpeed="10" />
    <vehicle id="LN_LS0_73" type="standard_car" route="LN_LS0" depart="266.0" departLane="random" departSpeed="10" />
    <vehicle id="LW_LE0_74" type="standard_car" route="LW_LE0" depart="266.0" departLane="random" departSpeed="10" />
    <vehicle id="UE_UW0_75" type="standard_car" route="UE_UW0" depart="269.0" departLane="random" departSpeed="10" />
    <vehicle id="LE_LW0_76" type="standard_car" route="LE_LW0" depart="272.0" departLane="random" departSpeed="10" />
    <vehicle id="UE_RN_77" type="standard_car" route="UE_RN" depart="273.0" departLane="random" departSpeed="10" />
    <vehicle id="LS_LW_78" type="standard_car" route="LS_LW" depart="275.0" departLane="random" departSpeed="10" />
    <vehicle id="LN_RN0_79" type="standard_car" route="LN_RN0" depart="275.0" departLane="random" departSpeed="10" />
    <vehicle id="UE_RN_80" type="standard_car" route="UE_RN" depart="281.0" departLane="random" departSpeed="10" />
    <vehicle id="LN_LS0_81" type="standard_car" route="LN_LS0" depart="281.0" departLane="random" departSpeed="10" />
    <vehicle id="LE_RS_82" type="standard_car" route="LE_RS" depart="282.0" departLane="random" departSpeed="10" />
    <vehicle id="RS_LE_83" type="standard_car" route="RS_LE" depart="284.0" departLane="random" departSpeed="10" />
    <vehicle id="LW_LE0_84" type="standard_car" route="LW_LE0" depart="286.0" departLane="random" departSpeed="10" />
    <vehicle id="LN_LW0_85" type="standard_car" route="LN_LW0" depart="287.0" departLane="random" departSpeed="10" />
    <vehicle id="LE_LN1_86" type="standard_car" route="LE_LN1" depart="288.0" departLane="random" departSpeed="10" />
    <vehicle id="RN_RS0_87" type="standard_car" route="RN_RS0" depart="289.0" departLane="random" departSpeed="10" />
    <vehicle id="LE_LW0_88" type="standard_car" route="LE_LW0" depart="289.0" departLane="random" departSpeed="10" />
    <vehicle id="RN_RS0_89" type="standard_car" route="RN_RS0" depart="291.0" departLane="random" departSpeed="10" />
    <vehicle id="LW_LE0_90" type="standard_car" route="LW_LE0" depart="294.0" departLane="random" departSpeed="10" />
    <vehicle id="RS_LE_91" type="standard_car" route="RS_LE" depart="297.0" departLane="random" departSpeed="10" />
    <vehicle id="RN_RS0_92" type="standard_car" route="RN_RS0" depart="300.0" departLane="random" departSpeed="10" />
    <vehicle id="LW_RN0_93" type="standard_car" route="LW_RN0" depart="302.0" departLane="random" departSpeed="10" />
    <vehicle id="LE_UE0_94" type="standard_car" route="LE_UE0" depart="303.0" departLane="random" departSpeed="10" />
    <vehicle id="RS_LE_95" type="standard_car" route="RS_LE" depart="304.0" departLane="random" departSpeed="10" />
    <vehicle id="UW_UE0_96" type="standard_car" route="UW_UE0" depart="306.0" departLane="random" departSpeed="10" />
    <vehicle id="LW_LN1_97" type="standard_car" route="LW_LN1" depart="306.0" departLane="random" departSpeed="10" />
    <vehicle id="UE_UW0_98" type="standard_car" route="UE_UW0" depart="307.0" departLane="random" departSpeed="10" />
    <vehicle id="LE_RN0_99" type="standard_car" route="LE_RN0" depart="308.0" departLane="random" departSpeed="10" />
    <vehicle id="LW_LE0_100" type="standard_car" route="LW_LE0" depart="312.0" departLane="random" departSpeed="10" />
    <vehicle id="RS_LE_101" type="standard_car" route="RS_LE" depart="312.0" departLane="random" departSpeed="10" />
    <vehicle id="LN_LW0_102" type="standard_car" route="LN_LW0" depart="313.0" departLane="random" departSpeed="10" />
    <vehicle id="LE_LW0_103" type="standard_car" route="LE_LW0" depart="314.0" departLane="random" departSpeed="10" />
    <vehicle id="RN_LN0_104" type="standard_car" route="RN_LN0" depart="315.0" departLane="random" departSpeed="10" />
    <vehicle id="RS_UW0_105" type="standard_car" route="RS_UW0" depart="317.0" departLane="random" departSpeed="10" />
    <vehicle id="UW_RN0_106" type="standard_car" route="UW_RN0" depart="317.0" departLane="random" departSpeed="10" />
    <vehicle id="LE_LN1_107" type="standard_car" route="LE_LN1" depart="318.0" departLane="random" departSpeed="10" />
    <vehicle id="UE_RS0_108" type="standard_car" route="UE_RS0" depart="322.0" departLane="random" departSpeed="10" />
    <vehicle id="LW_LS_109" type="standard_car" route="LW_LS" depart="322.0" departLane="random" departSpeed="10" />
    <vehicle id="UW_UE0_110" type="standard_car" route="UW_UE0" depart="324.0" departLane="random" departSpeed="10" />
    <vehicle id="LS_LN0_111" type="standard_car" route="LS_LN0" depart="325.0" departLane="random" departSpeed="10" />
    <vehicle id="LE_RS_112" type="standard_car" route="LE_RS" depart="330.0" departLane="random" departSpeed="10" />
    <vehicle id="UW_LS0_113" type="standard_car" route="UW_LS0" depart="330.0" departLane="random" departSpeed="10" />
    <vehicle id="UE_LS0_114" type="standard_car" route="UE_LS0" depart="331.0" departLane="random" departSpeed="10" />
    <vehicle id="LW_LE0_115" type="standard_car" route="LW_LE0" depart="333.0" departLane="random" departSpeed="10" />
    <vehicle id="UW_LN_116" type="standard_car" route="UW_LN" depart="334.0" departLane="random" departSpeed="10" />
    <vehicle id="RS_LW0_117" type="standard_car" route="RS_LW0" depart="335.0" departLane="random" departSpeed="10" />
    <vehicle id="UW_UE0_118" type="standard_car" route="UW_UE0" depart="336.0" departLane="random" departSpeed="10" />
    <vehicle id="LW_LE0_119" type="standard_car" route="LW_LE0" depart="336.0" departLane="random" departSpeed="10" />
    <vehicle id="UE_UW0_120" type="standard_car" route="UE_UW0" depart="337.0" departLane="random" departSpeed="10" />
    <vehicle id="LN_LS0_121" type="standard_car" route="LN_LS0" depart="339.0" departLane="random" departSpeed="10" />
    <vehicle id="LS_LW_122" type="standard_car" route="LS_LW" depart="340.0" departLane="random" departSpeed="10" />
    <vehicle id="UE_UW0_123" type="standard_car" route="UE_UW0" depart="340.0" departLane="random" departSpeed="10" />
    <vehicle id="LE_LW0_124" type="standard_car" route="LE_LW0" depart="342.0" departLane="random" departSpeed="10" />
    <vehicle id="RS_LE_125" type="standard_car" route="RS_LE" depart="344.0" departLane="random" departSpeed="10" />
    <vehicle id="UW_LN_126" type="standard_car" route="UW_LN" depart="347.0" departLane="random" departSpeed="10" />
    <vehicle id="RS_LN1_127" type="standard_car" route="RS_LN1" depart="348.0" departLane="random" departSpeed="10" />
    <vehicle id="LE_RS_128" type="standard_car" route="LE_RS" depart="350.0" departLane="random" departSpeed="10" />
    <vehicle id="LE_LS0_129" type="standard_car" route="LE_LS0" depart="351.0" departLane="random" departSpeed="10" />
    <vehicle id="LW_RN0_130" type="standard_car" route="LW_RN0" depart="353.0" departLane="random" departSpeed="10" />
    <vehicle id="LS_LN0_131" type="standard_car" route="LS_LN0" depart="356.0" departLane="random" departSpeed="10" />
    <vehicle id="UE_RN_132" type="standard_car" route="UE_RN" depart="356.0" departLane="random" departSpeed="10" />
    <vehicle id="UW_LS0_133" type="standard_car" route="UW_LS0" depart="358.0" departLane="random" departSpeed="10" />
    <vehicle id="LS_LE0_134" type="standard_car" route="LS_LE0" depart="360.0" departLane="random" departSpeed="10" />
    <vehicle id="RS_UW0_135" type="standard_car" route="RS_UW0" depart="362.0" departLane="random" departSpeed="10" />
    <vehicle id="LW_LE0_136" type="standard_car" route="LW_LE0" depart="364.0" departLane="random" departSpeed="10" />
    <vehicle id="UE_UW0_137" type="standard_car" route="UE_UW0" depart="364.0" departLane="random" departSpeed="10" />
    <vehicle id="RN_RS0_138" type="standard_car" route="RN_RS0" depart="365.0" departLane="random" departSpeed="10" />
    <vehicle id="RS_LE_139" type="standard_car" route="RS_LE" depart="368.0" departLane="random" departSpeed="10" />
    <vehicle id="RN_RS0_140" type="standard_car" route="RN_RS0" depart="368.0" departLane="random" departSpeed="10" />
    <vehicle id="UW_UE0_141" type="standard_car" route="UW_UE0" depart="369.0" departLane="random" departSpeed="10" />
    <vehicle id="UW_UE0_142" type="standard_car" route="UW_UE0" depart="370.0" departLane="random" departSpeed="10" />
    <vehicle id="LE_LW0_143" type="standard_car" route="LE_LW0" depart="371.0" departLane="random" departSpeed="10" />
    <vehicle id="LN_LS0_144" type="standard_car" route="LN_LS0" depart="371.0" departLane="random" departSpeed="10" />
    <vehicle id="LS_UW1_145" type="standard_car" route="LS_UW1" depart="371.0" departLane="random" departSpeed="10" />
    <vehicle id="LW_LE0_146" type="standard_car" route="LW_LE0" depart="374.0" departLane="random" departSpeed="10" />
    <vehicle id="LE_RS_147" type="standard_car" route="LE_RS" depart="375.0" departLane="random" departSpeed="10" />
    <vehicle id="LE_LW0_148" type="standard_car" route="LE_LW0" depart="376.0" departLane="random" departSpeed="10" />
    <vehicle id="UE_RN_149" type="standard_car" route="UE_RN" depart="378.0" departLane="random" departSpeed="10" />
    <vehicle id="UW_UE0_150" type="standard_car" route="UW_UE0" depart="378.0" departLane="random" departSpeed="10" />
    <vehicle id="LE_LW0_151" type="standard_car" route="LE_LW0" depart="379.0" departLane="random" departSpeed="10" />
    <vehicle id="LW_LE0_152" type="standard_car" route="LW_LE0" depart="379.0" departLane="random" departSpeed="10" />
    <vehicle id="LW_RS0_153" type="standard_car" route="LW_RS0" depart="381.0" departLane="random" departSpeed="10" />
    <vehicle id="LE_LW0_154" type="standard_car" route="LE_LW0" depart="385.0" departLane="random" departSpeed="10" />
    <vehicle id="LE_UE0_155" type="standard_car" route="LE_UE0" depart="387.0" departLane="random" departSpeed="10" />
    <vehicle id="LW_LE0_156" type="standard_car" route="LW_LE0" depart="387.0" departLane="random" departSpeed="10" />
    <vehicle id="UE_RN_157" type="standard_car" route="UE_RN" depart="387.0" departLane="random" departSpeed="10" />
    <vehicle id="LN_LS0_158" type="standard_car" route="LN_LS0" depart="388.0" departLane="random" departSpeed="10" />
    <vehicle id="UE_UW0_159" type="standard_car" route="UE_UW0" depart="389.0" departLane="random" departSpeed="10" />
    <vehicle id="UW_UE0_160" type="standard_car" route="UW_UE0" depart="389.0" departLane="random" departSpeed="10" />
    <vehicle id="UW_UE0_161" type="standard_car" route="UW_UE0" depart="391.0" departLane="random" departSpeed="10" />
    <vehicle id="LN_LS0_162" type="standard_car" route="LN_LS0" depart="391.0" departLane="random" departSpeed="10" />
    <vehicle id="RS_LW0_163" type="standard_car" route="RS_LW0" depart="394.0" departLane="random" departSpeed="10" />
    <vehicle id="RN_RS0_164" type="standard_car" route="RN_RS0" depart="395.0" departLane="random" departSpeed="10" />
    <vehicle id="LS_UW1_165" type="standard_car" route="LS_UW1" depart="396.0" departLane="random" departSpeed="10" />
    <vehicle id="LE_RN0_166" type="standard_car" route="LE_RN0" depart="396.0" departLane="random" departSpeed="10" />
    <vehicle id="UW_UE0_167" type="standard_car" route="UW_UE0" depart="397.0" departLane="random" departSpeed="10" />
    <vehicle id="UE_RS0_168" type="standard_car" route="UE_RS0" depart="397.0" departLane="random" departSpeed="10" />
    <vehicle id="RS_UE0_169" type="standard_car" route="RS_UE0" depart="397.0" departLane="random" departSpeed="10" />
    <vehicle id="RS_UW0_170" type="standard_car" route="RS_UW0" depart="398.0" departLane="random" departSpeed="10" />
    <vehicle id="UE_RN_171" type="standard_car" route="UE_RN" depart="399.0" departLane="random" departSpeed="10" />
    <vehicle id="LW_LE0_172" type="standard_car" route="LW_LE0" depart="401.0" departLane="random" departSpeed="10" />
    <vehicle id="UW_UE0_173" type="standard_car" route="UW_UE0" depart="401.0" departLane="random" departSpeed="10" />
    <vehicle id="LN_LW0_174" type="standard_car" route="LN_LW0" depart="402.0" departLane="random" departSpeed="10" />
    <vehicle id="LN_LS0_175" type="standard_car" route="LN_LS0" depart="404.0" departLane="random" departSpeed="10" />
    <vehicle id="UW_UE0_176" type="standard_car" route="UW_UE0" depart="406.0" departLane="random" departSpeed="10" />
    <vehicle id="UW_LN_177" type="standard_car" route="UW_LN" depart="406.0" departLane="random" departSpeed="10" />
    <vehicle id="LE_LS0_178" type="standard_car" route="LE_LS0" depart="406.0" departLane="random" departSpeed="10" />
    <vehicle id="LE_RS_179" type="standard_car" route="LE_RS" depart="410.0" departLane="random" departSpeed="10" />
    <vehicle id="LE_LW0_180" type="standard_car" route="LE_LW0" depart="410.0" departLane="random" departSpeed="10" />
    <vehicle id="LE_LW0_181" type="standard_car" route="LE_LW0" depart="410.0" departLane="random" departSpeed="10" />
    <vehicle id="LS_LE0_182" type="standard_car" route="LS_LE0" depart="410.0" departLane="random" departSpeed="10" />
    <vehicle id="UE_UW0_183" type="standard_car" route="UE_UW0" depart="413.0" departLane="random" departSpeed="10" />
    <vehicle id="LE_LW0_184" type="standard_car" route="LE_LW0" depart="416.0" departLane="random" departSpeed="10" />
    <vehicle id="LW_LE0_185" type="standard_car" route="LW_LE0" depart="417.0" departLane="random" departSpeed="10" />
    <vehicle id="LS_RN0_186" type="standard_car" route="LS_RN0" depart="419.0" departLane="random" departSpeed="10" />
    <vehicle id="LE_RS_187" type="standard_car" route="LE_RS" depart="420.0" departLane="random" departSpeed="10" />
    <vehicle id="LE_LS0_188" type="standard_car" route="LE_LS0" depart="420.0" departLane="random" departSpeed="10" />
    <vehicle id="LE_LW0_189" type="standard_car" route="LE_LW0" depart="420.0" departLane="random" departSpeed="10" />
    <vehicle id="LW_LE0_190" type="standard_car" route="LW_LE0" depart="421.0" departLane="random" departSpeed="10" />