<routes>
            <vType accel="1.0" decel="4.5" id="standard_car" length="5.0" minGap="2.5" maxSpeed="25" sigma="0.5" />

            <route id="UW_LN" edges="uw_tl1 tl1_ln"/>
            <route id="UW_RN0" edges="uw_tl1 tl1_tl2 tl2_rn"/>
            <route id="UW_RN1" edges="uw_tl1 tl1_tl3 tl3_tl4 tl4_tl2 tl2_rn"/>
            <route id="UW_UE0" edges="uw_tl1 tl1_tl2 tl2_ue"/>
            <route id="UW_UE1" edges="uw_tl1 tl1_tl3 tl3_tl4 tl4_tl2 tl2_ue"/>
            <route id="UW_LE0" edges="uw_tl1 tl1_tl2 tl2_tl4 tl4_le"/>
            <route id="UW_LE1" edges="uw_tl1 tl1_tl3 tl3_tl4 tl4_le"/>
            <route id="UW_RS0" edges="uw_tl1 tl1_tl2 tl2_tl4 tl4_rs"/>
            <route id="UW_RS1" edges="uw_tl1 tl1_tl3 tl3_tl4 tl4_rs"/>
            <route id="UW_LS0" edges="uw_tl1 tl1_tl3 tl3_ls"/>
            <route id="UW_LS1" edges="uw_tl1 tl1_tl2 tl2_tl4 tl4_tl3 tl3_ls"/>
            <route id="UW_LW0" edges="uw_tl1 tl1_tl3 tl3_lw"/>
            <route id="UW_LW1" edges="uw_tl1 tl1_tl2 tl2_tl4 tl4_tl3 tl3_lw"/>
            <route id="LW_LS" edges="lw_tl3 tl3_ls"/>
            <route id="LW_RS0" edges="lw_tl3 tl3_tl4 tl4_rs"/>
            <route id="LW_RS1" edges="lw_tl3 tl3_tl1 tl1_tl2 tl2_tl4 tl4_rs"/>
            <route id="LW_LE0" edges="lw_tl3 tl3_tl4 tl4_le"/>
            <route id="LW_LE1" edges="lw_tl3 tl3_tl1 tl1_tl2 tl2_tl4 tl4_le"/>
            <route id="LW_UE0" edges="lw_tl3 tl3_tl4 tl4_tl2 tl2_ue"/>
            <route id="LW_UE1" edges="lw_tl3 tl3_tl1 tl1_tl2 tl2_ue"/>
            <route id="LW_LN0" edges="lw_tl3 tl3_tl4 tl4_tl2 tl2_tl1 tl1_ln"/>
            <route id="LW_LN1" edges="lw_tl3 tl3_tl1 tl1_ln"/>
            <route id="LW_RN0" edges="lw_tl3 tl3_tl4 tl4_tl2 tl2_rn"/>
            <route id="LW_RN1" edges="lw_tl3 tl3_tl1 tl1_tl2 tl2_rn"/>
            <route id="LW_UW0" edges="lw_tl3 tl3_tl1 tl1_uw"/>
            <route id="LW_UW1" edges="lw_tl3 tl3_tl4 tl4_tl2 tl2_tl1 tl1_uw"/>
            <route id="LS_RS0" edges="ls_tl3 tl3_tl4 tl4_rs"/>
            <route id="LS_RS1" edges="ls_tl3 tl3_tl1 tl1_tl2 tl2_tl4 tl4_rs"/>
            <route id="LS_LE0" edges="ls_tl3 tl3_tl4 tl4_le"/>
            <route id="LS_LE1" edges="ls_tl3 tl3_tl1 tl1_tl2 tl2_tl4 tl4_le"/>
            <route id="LS_UE0" edges="ls_tl3 tl3_tl4 tl4_tl2 tl2_ue"/>
            <route id="LS_UE1" edges="ls_tl3 tl3_tl1 tl1_tl2 tl2_ue"/>
            <route id="LS_RN0" edges="ls_tl3 tl3_tl4 tl4_tl2 tl2_rn"/>
            <route id="LS_RN1" edges="ls_tl3 tl3_tl1 tl1_tl2 tl2_rn"/>
            <route id="LS_LN0" edges="ls_tl3 tl3_tl1 tl1_ln"/>
            <route id="LS_LN1" edges="ls_tl3 tl3_tl4 tl4_tl2 tl2_tl1 tl1_ln"/>
            <route id="LS_UW0" edges="ls_tl3 tl3_tl4 tl4_tl2 tl2_tl1 tl1_uw"/>
            <route id="LS_UW1" edges="ls_tl3 tl3_tl1 tl1_uw"/>
            <route id="LS_LW" edges="ls_tl3 tl3_lw"/>
            <route id="RS_LE" edges="rs_tl4 tl4_le"/>
            <route id="RS_UE0" edges="rs_tl4 tl4_tl2 tl2_ue"/>
            <route id="RS_UE1" edges="rs_tl4 tl4_tl3 tl3_tl1 tl1_tl2 tl2_ue"/>
            <route id="RS_RN0" edges="rs_tl4 tl4_tl2 tl2_rn"/>
            <route id="RS_RN1" edges="rs_tl4 tl4_tl3 tl3_tl1 tl1_tl2 tl2_rn"/>
            <route id="RS_LN0" edges="rs_tl4 tl4_tl2 tl2_tl1 tl1_ln"/>
            <route id="RS_LN1" edges="rs_tl4 tl4_tl3 tl3_tl1 tl1_ln"/>
            <route id="RS_UW0" edges="rs_tl4 tl4_tl2 tl2_tl1 tl1_uw"/> 
            <route id="RS_UW1" edges="rs_tl4 tl4_tl3 tl3_tl1 tl1_uw"/>
            <route id="RS_LW0" edges="rs_tl4 tl4_tl3 tl3_lw"/>
            <route id="RS_LW1" edges="rs_tl4 tl4_tl2 tl2_tl1 tl1_tl3 tl3_lw"/> 
            <route id="RS_LS0" edges="rs_tl4 tl4_tl3 tl3_ls"/>
            <route id="RS_LS1" edges="rs_tl4 tl4_tl2 tl2_tl1 tl1_tl3 tl3_ls"/>
            <route id="LE_UE0" edges="le_tl4 tl4_tl2 tl2_ue"/>
            <route id="LE_UE1" edges="le_tl4 tl4_tl3 tl3_tl1 tl1_tl2 tl2_ue"/>
            <route id="LE_RN0" edges="le_tl4 tl4_tl2 tl2_rn"/>
            <route id="LE_RN1" edges="le_tl4 tl4_tl3 tl3_tl1 tl1_tl2 tl2_rn"/>
            <route id="LE_LN0" edges="le_tl4 tl4_tl2 tl2_tl1 tl1_ln"/>
            <route id="LE_LN1" edges="le_tl4 tl4_tl3 tl3_tl1 tl1_ln"/>
            <route id="LE_UW0" edges="le_tl4 tl4_tl2 tl2_tl1 tl1_uw"/>
            <route id="LE_UW1" edges="le_tl4 tl4_tl3 tl3_tl1 tl1_uw"/>
            <route id="LE_LW0" edges="le_tl4 tl4_tl3 tl3_lw"/>
            <route id="LE_LW1" edges="le_tl4 tl4_tl2 tl2_tl1 tl1_tl3 tl3_lw"/>
            <route id="LE_LS0" edges="le_tl4 tl4_tl3 tl3_ls"/>
            <route id="LE_LS1" edges="le_tl4 tl4_tl2 tl2_tl1 tl1_tl3 tl3_ls"/>
            <route id="LE_RS" edges="le_tl4 tl4_rs"/>
            <route id="UE_RN" edges="ue_tl2 tl2_rn"/>
            <route id="UE_LN0" edges="ue_tl2 tl2_tl1 tl1_ln"/>
            <route id="UE_LN1" edges="ue_tl2 tl2_tl4 tl4_tl3 tl3_tl1 tl1_ln"/>
            <route id="UE_UW0" edges="ue_tl2 tl2_tl1 tl1_uw"/>
            <route id="UE_UW1" edges="ue_tl2 tl2_tl4 tl4_tl3 tl3_tl1 tl1_uw"/>
            <route id="UE_LW0" edges="ue_tl2 tl2_tl1 tl1_tl3 tl3_lw"/>
            <route id="UE_LW1" edges="ue_tl2 tl2_tl4 tl4_tl3 tl3_lw"/>
            <route id="UE_LS0" edges="ue_tl2 tl2_tl1 tl1_tl3 tl3_ls"/>
            <route id="UE_LS1" edges="ue_tl2 tl2_tl4 tl4_tl3 tl3_ls"/>
            <route id="UE_RS0" edges="ue_tl2 tl2_tl4 tl4_rs"/>
            <route id="UE_RS1" edges="ue_tl2 tl2_tl1 tl1_tl3 tl3_tl4 tl4_rs"/>
            <route id="UE_LE0" edges="ue_tl2 tl2_tl4 tl4_le"/>
            <route id="UE_LE1" edges="ue_tl2 tl2_tl1 tl1_tl3 tl3_tl4 tl4_le"/>
            <route id="RN_LN0" edges="rn_tl2 tl2_tl1 tl1_ln"/>
            <route id="RN_LN1" edges="rn_tl2 tl2_tl4 tl4_tl3 tl3_tl1 tl1_ln"/>
            <route id="RN_UW0" edges="rn_tl2 tl2_tl1 tl1_uw"/>
            <route id="RN_UW1" edges="rn_tl2 tl2_tl4 tl4_tl3 tl3_tl1 tl1_uw"/>
            <route id="RN_LW0" edges="rn_tl2 tl2_tl1 tl1_tl3 tl3_lw"/>
            <route id="RN_LW1" edges="rn_tl2 tl2_tl4 tl4_tl3 tl3_lw"/>
            <route id="RN_LS0" edges="rn_tl2 tl2_tl1 tl1_tl3 tl3_ls"/>
            <route id="RN_LS1" edges="rn_tl2 tl2_tl4 tl4_tl3 tl3_ls"/>
            <route id="RN_RS0" edges="rn_tl2 tl2_tl4 tl4_rs"/>
            <route id="RN_RS1" edges="rn_tl2 tl2_tl1 tl1_tl3 tl3_tl4 tl4_rs"/>
            <route id="RN_LE0" edges="rn_tl2 tl2_tl4 tl4_le"/>
            <route id="RN_LE1" edges="rn_tl2 tl2_tl1 tl1_tl3 tl3_tl4 tl4_le"/>
            <route id="RN_UE" edges="rn_tl2 tl2_ue"/>
            <route id="LN_UW" edges="ln_tl1 tl1_uw"/>
            <route id="LN_LW0" edges="ln_tl1 tl1_tl3 tl3_lw"/>
            <route id="LN_LW1" edges="ln_tl1 tl1_tl2 tl2_tl4 tl4_tl3 tl3_lw"/>
            <route id="LN_LS0" edges="ln_tl1 tl1_tl3 tl3_ls"/>
            <route id="LN_LS1" edges="ln_tl1 tl1_tl2 tl2_tl4 tl4_tl3 tl3_ls"/>
            <route id="LN_RS0" edges="ln_tl1 tl1_tl3 tl3_tl4 tl4_rs"/>
            <route id="LN_RS1" edges="ln_tl1 tl1_tl2 tl2_tl4 tl4_rs"/>
            <route id="LN_LE0" edges="ln_tl1 tl1_tl3 tl3_tl4 tl4_le"/>
            <route id="LN_LE1" edges="ln_tl1 tl1_tl2 tl2_tl4 tl4_le"/>
            <route id="LN_UE0" edges="ln_tl1 tl1_tl2 tl2_ue"/>
            <route id="LN_UE1" edges="ln_tl1 tl1_tl3 tl3_tl4 tl4_tl2 tl2_ue"/>
            <route id="LN_RN0" edges="ln_tl1 tl1_tl2 tl2_rn"/>
            <route id="LN_RN1" edges="ln_tl1 tl1_tl3 tl3_tl4 tl4_tl2 tl2_rn"/>
    <vehicle id="LW_RS0_0" type="standard_car" route="LW_RS0" depart="29.0" departLane="random" departSpeed="10" />
    <vehicle id="LN_UE0_1" type="standard_car" route="LN_UE0" depart="49.0" departLane="random" departSpeed="10" />
    <vehicle id="LW_LE0_2" type="standard_car" route="LW_LE0" depart="56.0" departLane="random" departSpeed="10" />
    <vehicle id="LE_LW0_3" type="standard_car" route="LE_LW0" depart="57.0" departLane="random" departSpeed="10" />
    <vehicle id="UE_UW0_4" type="standard_car" route="UE_UW0" depart="61.0" departLane="random" departSpeed="10" />
    <vehicle id="UE_RN_5" type="standard_car" route="UE_RN" depart="62.0" departLane="random" departSpeed="10" />
    <vehicle id="LE_RS_6" type="standard_car" route="LE_RS" depart="66.0" departLane="random" departSpeed="10" />
    <vehicle id="LE_LW0_7" type="standard_car" route="LE_LW0" depart="66.0" departLane="random" departSpeed="10" />
    <vehicle id="RN_RS0_8" type="standard_car" route="RN_RS0" depart="71.0" departLane="random" departSpeed="10" />
    <vehicle id="LW_RS0_9" type="standard_car" route="LW_RS0" depart="78.0" departLane="random" departSpeed="10" />
    <vehicle id="UE_UW0_10" type="standard_car" route="UE_UW0" depart="85.0" departLane="random" departSpeed="10" />
    <vehicle id="LW_LE0_11" type="standard_car" route="LW_LE0" depart="87.0" departLane="random" departSpeed="10" />
    <vehicle id="UW_RN0_12" type="standard_car" route="UW_RN0" depart="89.0" departLane="random" departSpeed="10" />
    <vehicle id="UW_UE0_13" type="standard_car" route="UW_UE0" depart="95.0" departLane="random" departSpeed="10" />
    <vehicle id="RN_RS0_14" type="standard_car" route="RN_RS0" depart="101.0" departLane="random" departSpeed="10" />
    <vehicle id="LE_LW0_15" type="standard_car" route="LE_LW0" depart="114.0" departLane="random" departSpeed="10" />
    <vehicle id="LS_LN0_16" type="standard_car" route="LS_LN0" depart="115.0" departLane="random" departSpeed="10" />
    <vehicle id="RS_UW1_17" type="standard_car" route="RS_UW1" depart="119.0" departLane="random" departSpeed="10" />
    <vehicle id="LE_LW0_18" type="standard_car" route="LE_LW0" depart="121.0" departLane="random" departSpeed="10" />
    <vehicle id="LS_LN0_19" type="standard_car" route="LS_LN0" depart="121.0" departLane="random" departSpeed="10" />
    <vehicle id="LW_RN0_20" type="standard_car" route="LW_RN0" depart="123.0" departLane="random" departSpeed="10" />
    <vehicle id="LW_LE0_21" type="standard_car" route="LW_LE0" depart="123.0" departLane="random" departSpeed="10" />
    <vehicle id="UE_LW0_22" type="standard_car" route="UE_LW0" depart="124.0" departLane="random" departSpeed="10" />
    <vehicle id="LS_LN0_23" type="standard_car" route="LS_LN0" depart="128.0" departLane="random" departSpeed="10" />
    <vehicle id="LW_LE0_24" type="standard_car" route="LW_LE0" depart="131.0" departLane="random" departSpeed="10" />
    <vehicle id="LN_LS0_25" type="standard_car" route="LN_LS0" depart="132.0" departLane="random" departSpeed="10" />
    <vehicle id="RN_RS0_26" type="standard_car" route="RN_RS0" depart="135.0" departLane="random" departSpeed="10" />
    <vehicle id="UE_UW0_27" type="standard_car" route="UE_UW0" depart="142.0" departLane="random" departSpeed="10" />
    <vehicle id="LS_LN0_28" type="standard_car" route="LS_LN0" depart="143.0" departLane="random" departSpeed="10" />
    <vehicle id="LS_LN0_29" type="standard_car" route="LS_LN0" depart="143.0" departLane="random" departSpeed="10" />
    <vehicle id="LS_LN0_30" type="standard_car" route="LS_LN0" depart="145.0" departLane="random" departSpeed="10" />
    <vehicle id="LW_LE0_31" type="standard_car" route="LW_LE0" depart="145.0" departLane="random" departSpeed="10" />
    <vehicle id="LS_LN0_32" type="standard_car" route="LS_LN0" depart="145.0" departLane="random" departSpeed="10" />
    <vehicle id="LS_LN0_33" type="standard_car" route="LS_LN0" depart="145.0" departLane="random" departSpeed="10" />
    <vehicle id="LN_LE0_34" type="standard_car" route="LN_LE0" depart="146.0" departLane="random" departSpeed="10" />
    <vehicle id="LS_LN0_35" type="standard_car" route="LS_LN0" depart="148.0" departLane="random" departSpeed="10" />
    <vehicle id="UE_UW0_36" type="standard_car" route="UE_UW0" depart="154.0" departLane="random" departSpeed="10" />
    <vehicle id="LS_LW_37" type="standard_car" route="LS_LW" depart="160.0" departLane="random" departSpeed="10" />
    <vehicle id="RN_RS0_38" type="standard_car" route="RN_RS0" depart="161.0" departLane="random" departSpeed="10" />
    <vehicle id="LN_LS0_39" type="standard_car" route="LN_LS0" depart="164.0" departLane="random" departSpeed="10" />
    <vehicle id="LW_LE0_40" type="standard_car" route="LW_LE0" depart="164.0" departLane="random" departSpeed="10" />
    <vehicle id="LN_UW_41" type="standard_car" route="LN_UW" depart="169.0" departLane="random" departSpeed="10" />
    <vehicle id="UE_LE0_42" type="standard_car" route="UE_LE0" depart="169.0" departLane="random" departSpeed="10" />
    <vehicle id="UE_UW0_43" type="standard_car" route="UE_UW0" depart="170.0" departLane="random" departSpeed="10" />
    <vehicle id="RS_LW0_44" type="standard_car" route="RS_LW0" depart="185.0" departLane="random" departSpeed="10" />
    <vehicle id="LN_UE0_45" type="standard_car" route="LN_UE0" depart="186.0" departLane="random" departSpeed="10" />
    <vehicle id="LE_LW0_46" type="standard_car" route="LE_LW0" depart="188.0" departLane="random" departSpeed="10" />
    <vehicle id="LS_LN0_47" type="standard_car" route="LS_LN0" depart="189.0" departLane="random" departSpeed="10" />
    <vehicle id="LS_UE1_48" type="standard_car" route="LS_UE1" depart="189.0" departLane="random" departSpeed="10" />
    <vehicle id="RS_LW0_49" type="standard_car" route="RS_LW0" depart="190.0" departLane="random" departSpeed="10" />
    <vehicle id="LW_LE0_50" type="standard_car" route="LW_LE0" depart="191.0" departLane="random" departSpeed="10" />
    <vehicle id="LE_RS_51" type="standard_car" route="LE_RS" depart="194.0" departLane="random" departSpeed="10" />
    <vehicle id="RS_LE_52" type="standard_car" route="RS_LE" depart="200.0" departLane="random" departSpeed="10" />
    <vehicle id="LS_LN0_53" type="standard_car" route="LS_LN0" depart="202.0" departLane="random" departSpeed="10" />
    <vehicle id="LN_UW_54" type="standard_car" route="LN_UW" depart="203.0" departLane="random" departSpeed="10" />
    <vehicle id="LS_LN0_55" type="standard_car" route="LS_LN0" depart="205.0" departLane="random" departSpeed="10" />
    <vehicle id="LS_RN0_56" type="standard_car" route="LS_RN0" depart="207.0" departLane="random" departSpeed="10" />
    <vehicle id="UE_RS0_57" type="standard_car" route="UE_RS0" depart="210.0" departLane="random" departSpeed="10" />
    <vehicle id="LN_UE0_58" type="standard_car" route="LN_UE0" depart="210.0" departLane="random" departSpeed="10" />
    <vehicle id="LW_RN0_59" type="standard_car" route="LW_RN0" depart="212.0" departLane="random" departSpeed="10" />
    <vehicle id="RN_RS0_60" type="standard_car" route="RN_RS0" depart="212.0" departLane="random" departSpeed="10" />
    <vehicle id="UW_UE0_61" type="standard_car" route="UW_UE0" depart="213.0" departLane="random" departSpeed="10" />
    <vehicle id="RN_RS0_62" type="standard_car" route="RN_RS0" depart="214.0" departLane="random" departSpeed="10" />
    <vehicle id="LS_LN0_63" type="standard_car" route="LS_LN0" depart="214.0" departLane="random" departSpeed="10" />
    <vehicle id="UE_LW0_64" type="standard_car" route="UE_LW0" depart="215.0" departLane="random" departSpeed="10" />
    <vehicle id="UE_UW0_65" type="standard_car" route="UE_UW0" depart="219.0" departLane="random" departSpeed="10" />
    <vehicle id="LS_UE1_66" type="standard_car" route="LS_UE1" depart="219.0" departLane="random" departSpeed="10" />
    <vehicle id="LN_UE0_67" type="standard_car" route="LN_UE0" depart="222.0" departLane="random" departSpeed="10" />
    <vehicle id="UE_UW0_68" type="standard_car" route="UE_UW0" depart="223.0" departLane="random" departSpeed="10" />
    <vehicle id="RN_RS0_69" type="standard_car" route="RN_RS0" depart="227.0" departLane="random" departSpeed="10" />
    <vehicle id="UE_UW0_70" type="standard_car" route="UE_UW0" depart="232.0" departLane="random" departSpeed="10" />
    <vehicle id="UW_UE0_71" type="standard_car" route="UW_UE0" depart="235.0" departLane="random" departSpeed="10" />
    <vehicle id="UE_RS0_72" type="standard_car" route="UE_RS0" depart="237.0" departLane="random" departSpeed="10" />
    <vehicle id="RS_LW0_73" type="standard_car" route="RS_LW0" depart="239.0" departLane="random" departSpeed="10" />
    <vehicle id="RN_RS0_74" type="standard_car" route="RN_RS0" depart="240.0" departLane="random" departSpeed="10" />
    <vehicle id="LN_LW0_75" type="standard_car" route="LN_LW0" depart="241.0" departLane="random" departSpeed="10" />
    <vehicle id="LE_RN0_76" type="standard_car" route="LE_RN0" depart="241.0" departLane="random" departSpeed="10" />
    <vehicle id="LE_LW0_77" type="standard_car" route="LE_LW0" depart="243.0" departLane="random" departSpeed="10" />
    <vehicle id="UW_RN0_78" type="standard_car" route="UW_RN0" depart="243.0" departLane="random" departSpeed="10" />
    <vehicle id="LW_LE0_79" type="standard_car" route="LW_LE0" depart="247.0" departLane="random" departSpeed="10" />
    <vehicle id="UE_UW0_80" type="standard_car" route="UE_UW0" depart="247.0" departLane="random" departSpeed="10" />
    <vehicle id="LW_LE0_81" type="standard_car" route="LW_LE0" depart="247.0" departLane="random" departSpeed="10" />
    <vehicle id="UW_RS0_82" type="standard_car" route="UW_RS0" depart="247.0" departLane="random" departSpeed="10" />
    <vehicle id="UE_UW0_83" type="standard_car" route="UE_UW0" depart="248.0" departLane="random" departSpeed="10" />
    <vehicle id="RS_UE0_84" type="standard_car" route="RS_UE0" depart="248.0" departLane="random" departSpeed="10" />
    <vehicle id="LW_LE1_85" type="standard_car" route="LW_LE1" depart="250.0" departLane="random" departSpeed="10" />
    <vehicle id="LE_RN0_86" type="standard_car" route="LE_RN0" depart="252.0" departLane="random" departSpeed="10" />
    <vehicle id="LE_LW0_87" type="standard_car" route="LE_LW0" depart="252.0" departLane="random" departSpeed="10" />
    <vehicle id="LS_LN0_88" type="standard_car" route="LS_LN0" depart="253.0" departLane="random" departSpeed="10" />
    <vehicle id="UW_UE0_89" type="standard_car" route="UW_UE0" depart="253.0" departLane="random" departSpeed="10" />
    <vehicle id="LN_LS0_90" type="standard_car" route="LN_LS0" depart="254.0" departLane="random" departSpeed="10" />
    <vehicle id="UE_RN_91" type="standard_car" route="UE_RN" depart="256.0" departLane="random" departSpeed="10" />
    <vehicle id="LE_LW0_92" type="standard_car" route="LE_LW0" depart="257.0" departLane="random" departSpeed="10" />
    <vehicle id="UW_LN_93" type="standard_car" route="UW_LN" depart="259.0" departLane="random" departSpeed="10" />
    <vehicle id="LE_LW0_94" type="standard_car" route="LE_LW0" depart="260.0" departLane="random" departSpeed="10" />
    <vehicle id="LW_LE0_95" type="standard_car" route="LW_LE0" depart="262.0" departLane="random" departSpeed="10" />
    <vehicle id="LW_LE1_96" type="standard_car" route="LW_LE1" depart="262.0" departLane="random" departSpeed="10" />
    <vehicle id="RS_UW0_97" type="standard_car" route="RS_UW0" depart="264.0" departLane="random" departSpeed="10" />
    <vehicle id="UW_LS0_98" type="standard_car" route="UW_LS0" depart="265.0" departLane="random" departSpeed="10" />
    <vehicle id="UW_LE1_99" type="standard_car" route="UW_LE1" depart="265.0" departLane="random" departSpeed="10" />
    <vehicle id="LE_RS_100" type="standard_car" route="LE_RS" depart="266.0" departLane="random" departSpeed="10" />
    <vehicle id="UE_RN_101" type="standard_car" route="UE_RN" depart="267.0" departLane="random" departSpeed="10" />
    <vehicle id="LW_LS_102" type="standard_car" route="LW_LS" depart="269.0" departLane="random" departSpeed="10" />
    <vehicle id="LN_LS0_103" type="standard_car" route="LN_LS0" depart="270.0" departLane="random" departSpeed="10" />
    <vehicle id="UE_UW0_104" type="standard_car" route="UE_UW0" depart="270.0" departLane="random" departSpeed="10" />
    <vehicle id="LS_LN0_105" type="standard_car" route="LS_LN0" depart="273.0" departLane="random" departSpeed="10" />
    <vehicle id="LE_RN0_106" type="standard_car" route="LE_RN0" depart="273.0" departLane="random" departSpeed="10" />
    <vehicle id="UW_UE0_107" type="standard_car" route="UW_UE0" depart="274.0" departLane="random" departSpeed="10" />
    <vehicle id="UE_LN0_108" type="standard_car" route="UE_LN0" depart="277.0" departLane="random" departSpeed="10" />
    <vehicle id="LN_LE0_109" type="standard_car" route="LN_LE0" depart="277.0" departLane="random" departSpeed="10" />
    <vehicle id="RN_RS0_110" type="standard_car" route="RN_RS0" depart="278.0" departLane="random" departSpeed="10" />
    <vehicle id="RN_RS0_111" type="standard_car" route="RN_RS0" depart="279.0" departLane="random" departSpeed="10" />
    <vehicle id="LN_LE0_112" type="standard_car" route="LN_LE0" depart="279.0" departLane="random" departSpeed="10" />
    <vehicle id="LE_RS_113" type="standard_car" route="LE_RS" depart="281.0" departLane="random" departSpeed="10" />
    <vehicle id="LN_LS0_114" type="standard_car" route="LN_LS0" depart="285.0" departLane="random" departSpeed="10" />
    <vehicle id="UE_UW0_115" type="standard_car" route="UE_UW0" depart="289.0" departLane="random" departSpeed="10" />
    <vehicle id="LE_LW0_116" type="standard_car" route="LE_LW0" depart="290.0" departLane="random" departSpeed="10" />
    <vehicle id="RS_UW1_117" type="standard_car" route="RS_UW1" depart="292.0" departLane="random" departSpeed="10" />
    <vehicle id="LN_UW_118" type="standard_car" route="LN_UW" depart="292.0" departLane="random" departSpeed="10" />
    <vehicle id="LN_UW_119" type="standard_car" route="LN_UW" depart="292.0" departLane="random" departSpeed="10" />
    <vehicle id="LS_LN0_120" type="standard_car" route="LS_LN0" depart="292.0" departLane="random" departSpeed="10" />
    <vehicle id="LE_LW0_121" type="standard_car" route="LE_LW0" depart="294.0" departLane="random" departSpeed="10" />
    <vehicle id="RN_RS0_122" type="standard_car" route="RN_RS0" depart="294.0" departLane="random" departSpeed="10" />
    <vehicle id="LW_RS0_123" type="standard_car" route="LW_RS0" depart="296.0" departLane="random" departSpeed="10" />
    <vehicle id="LE_RS_124" type="standard_car" route="LE_RS" depart="296.0" departLane="random" departSpeed="10" />
    <vehicle id="LW_LE0_125" type="standard_car" route="LW_LE0" depart="296.0" departLane="random" departSpeed="10" />
    <vehicle id="LW_UW0_126" type="standard_car" route="LW_UW0" depart="297.0" departLane="random" departSpeed="10" />
    <vehicle id="LW_LE0_127" type="standard_car" route="LW_LE0" depart="297.0" departLane="random" departSpeed="10" />
    <vehicle id="UW_UE0_128" type="standard_car" route="UW_UE0" depart="298.0" departLane="random" departSpeed="10" />
    <vehicle id="LE_LW0_129" type="standard_car" route="LE_LW0" depart="300.0" departLane="random" departSpeed="10" />
    <vehicle id="LS_LN0_130" type="standard_car" route="LS_LN0" depart="302.0" departLane="random" departSpeed="10" />
    <vehicle id="LN_LS0_131" type="standard_car" route="LN_LS0" depart="302.0" departLane="random" departSpeed="10" />
    <vehicle id="LS_LE0_132" type="standard_car" route="LS_LE0" depart="303.0" departLane="random" departSpeed="10" />
    <vehicle id="RS_LW1_133" type="standard_car" route="RS_LW1" depart="305.0" departLane="random" departSpeed="10" />
    <vehicle id="UE_UW0_134" type="standard_car" route="UE_UW0" depart="306.0" departLane="random" departSpeed="10" />
    <vehicle id="LS_UW1_135" type="standard_car" route="LS_UW1" depart="306.0" departLane="random" departSpeed="10" />
    <vehicle id="UE_UW0_136" type="standard_car" route="UE_UW0" depart="306.0" departLane="random" departSpeed="10" />
    <vehicle id="RS_LE_137" type="standard_car" route="RS_LE" depart="307.0" departLane="random" departSpeed="10" />
    <vehicle id="UE_UW0_138" type="standard_car" route="UE_UW0" depart="308.0" departLane="random" departSpeed="10" />
    <vehicle id="LE_LW0_139" type="standard_car" route="LE_LW0" depart="308.0" departLane="random" departSpeed="10" />
    <vehicle id="LS_LN0_140" type="standard_car" route="LS_LN0" depart="310.0" departLane="random" departSpeed="10" />
    <vehicle id="UE_UW0_141" type="standard_car" route="UE_UW0" depart="312.0" departLane="random" departSpeed="10" />
    <vehicle id="LN_UE0_142" type="standard_car" route="LN_UE0" depart="313.0" departLane="random" departSpeed="10" />
    <vehicle id="LS_LE0_143" type="standard_car" route="LS_LE0" depart="314.0" departLane="random" departSpeed="10" />
    <vehicle id="LE_UE0_144" type="standard_car" route="LE_UE0" depart="316.0" departLane="random" departSpeed="10" />
    <vehicle id="LN_LS0_145" type="standard_car" route="LN_LS0" depart="317.0" departLane="random" departSpeed="10" />
    <vehicle id="LW_LS_146" type="standard_car" route="LW_LS" depart="318.0" departLane="random" departSpeed="10" />
    <vehicle id="LW_RN0_147" type="standard_car" route="LW_RN0" depart="318.0" departLane="random" departSpeed="10" />
    <vehicle id="RN_RS0_148" type="standard_car" route="RN_RS0" depart="319.0" departLane="random" departSpeed="10" />
    <vehicle id="UE_RS0_149" type="standard_car" route="UE_RS0" depart="320.0" departLane="random" departSpeed="10" />
    <vehicle id="LE_LS0_150" type="standard_car" route="LE_LS0" depart="321.0" departLane="random" departSpeed="10" />
    <vehicle id="RN_RS0_151" type="standard_car" route="RN_RS0" depart="321.0" departLane="random" departSpeed="10" />
    <vehicle id="LN_UW_152" type="standard_car" route="LN_UW" depart="322.0" departLane="random" departSpeed="10" />
    <vehicle id="LS_LN0_153" type="standard_car" route="LS_LN0" depart="322.0" departLane="random" departSpeed="10" />
    <vehicle id="LS_LN0_154" type="standard_car" route="LS_LN0" depart="325.0" departLane="random" departSpeed="10" />
    <vehicle id="LN_LW0_155" type="standard_car" route="LN_LW0" depart="326.0" departLane="random" departSpeed="10" />
    <vehicle id="LE_LW0_156" type="standard_car" route="LE_LW0" depart="330.0" departLane="random" departSpeed="10" />
    <vehicle id="LW_LS_157" type="standard_car" route="LW_LS" depart="330.0" departLane="random" departSpeed="10" />
    <vehicle id="LS_LN0_158" type="standard_car" route="LS_LN0" depart="332.0" departLane="random" departSpeed="10" />
    <vehicle id="LW_RN0_159" type="standard_car" route="LW_RN0" depart="338.0" departLane="random" departSpeed="10" />
    <vehicle id="LE_LW0_160" type="standard_car" route="LE_LW0" depart="339.0" departLane="random" departSpeed="10" />
    <vehicle id="UE_UW0_161" type="standard_car" route="UE_UW0" depart="339.0" departLane="random" departSpeed="10" />
    <vehicle id="LS_LN0_162" type="standard_car" route="LS_LN0" depart="339.0" departLane="random" departSpeed="10" />
    <vehicle id="LW_LE0_163" type="standard_car" route="LW_LE0" depart="341.0" departLane="random" departSpeed="10" />
    <vehicle id="UE_UW0_164" type="standard_car" route="UE_UW0" depart="341.0" departLane="random" departSpeed="10" />
    <vehicle id="UW_RS0_165" type="standard_car" route="UW_RS0" depart="342.0" departLane="random" departSpeed="10" />
    <vehicle id="LS_LW_166" type="standard_car" route="LS_LW" depart="342.0" departLane="random" departSpeed="10" />
    <vehicle id="UE_UW0_167" type="standard_car" route="UE_UW0" depart="342.0" departLane="random" departSpeed="10" />
    <vehicle id="UW_UE0_168" type="standard_car" route="UW_UE0" depart="344.0" departLane="random" departSpeed="10" />
    <vehicle id="UE_UW0_169" type="standard_car" route="UE_UW0" depart="344.0" departLane="random" departSpeed="10" />
    <vehicle id="RN_RS0_170" type="standard_car" route="RN_RS0" depart="344.0" departLane="random" departSpeed="10" />
    <vehicle id="LS_LN0_171" type="standard_car" route="LS_LN0" depart="344.0" departLane="random" departSpeed="10" />
    <vehicle id="UE_UW0_172" type="standard_car" route="UE_UW0" depart="347.0" departLane="random" departSpeed="10" />
    <vehicle id="UW_UE0_173" type="standard_car" route="UW_UE0" depart="347.0" departLane="random" departSpeed="10" />
    <vehicle id="LS_LN0_174" type="standard_car" route="LS_LN0" depart="347.0" departLane="random" departSpeed="10" />
    <vehicle id="LE_LW0_175" type="standard_car" route="LE_LW0" depart="347.0" departLane="random" departSpeed="10" />
    <vehicle id="LN_LW0_176" type="standard_car" route="LN_LW0" depart="347.0" departLane="random" departSpeed="10" />
    <vehicle id="LS_LW_177" type="standard_car" route="LS_LW" depart="348.0" departLane="random" departSpeed="10" />
    <vehicle id="UW_LN_178" type="standard_car" route="UW_LN" depart="351.0" departLane="random" departSpeed="10" />
    <vehicle id="LW_LE0_179" type="standard_car" route="LW_LE0" depart="351.0" departLane="random" departSpeed="10" />
    <vehicle id="LN_RS0_180" type="standard_car" route="LN_RS0" depart="352.0" departLane="random" departSpeed="10" />
    <vehicle id="UW_LN_181" type="standard_car" route="UW_LN" depart="352.0" departLane="random" departSpeed="10" />
    <vehicle id="LE_LW0_182" type="standard_car" route="LE_LW0" depart="353.0" departLane="random" departSpeed="10" />
    <vehicle id="LW_LE0_183" type="standard_car" route="LW_LE0" depart="354.0" departLane="random" departSpeed="10" />
    <vehicle id="RN_RS0_184" type="standard_car" route="RN_RS0" depart="354.0" departLane="random" departSpeed="10" />
    <vehicle id="UE_UW0_185" type="standard_car" route="UE_UW0" depart="355.0" departLane="random" departSpeed="10" />
    <vehicle id="UW_UE0_186" type="standard_car" route="UW_UE0" depart="355.0" departLane="random" departSpeed="10" />
    <vehicle id="LE_LW0_187" type="standard_car" route="LE_LW0" depart="356.0" departLane="random" departSpeed="10" />
    <vehicle id="LS_LE0_188" type="standard_car" route="LS_LE0" depart="357.0" departLane="random" departSpeed="10" />
    <vehicle id="UE_LN0_189" type="standard_car" route="UE_LN0" depart="357.0" departLane="random" departSpeed="10" />
    <vehicle id="LW_LE0_190" type="standard_car" route="LW_LE0" depart="358.0" departLane="random" departSpeed="10" />