<routes>
            <vType accel="1.0" decel="4.5" id="standard_car" length="5.0" minGap="2.5" maxSpeed="25" sigma="0.5" />

            <route id="W_N" edges="W2TL TL2N"/>
            <route id="W_E" edges="W2TL TL2E"/>
            <route id="W_S" edges="W2TL TL2S"/>
            <route id="N_W" edges="N2TL TL2W"/>
            <route id="N_E" edges="N2TL TL2E"/>
            <route id="N_S" edges="N2TL TL2S"/>
            <route id="E_W" edges="E2TL TL2W"/>
            <route id="E_N" edges="E2TL TL2N"/>
            <route id="E_S" edges="E2TL TL2S"/>
            <route id="S_W" edges="S2TL TL2W"/>
            <route id="S_N" edges="S2TL TL2N"/>
            <route id="S_E" edges="S2TL TL2E"/>
    <vehicle id="N_S_0" type="standard_car" route="N_S" depart="72.0" departLane="random" departSpeed="10" />
    <vehicle id="S_W_1" type="standard_car" route="S_W" depart="77.0" departLane="random" departSpeed="10" />
    <vehicle id="W_E_2" type="standard_car" route="W_E" depart="105.0" departLane="random" departSpeed="10" />
    <vehicle id="E_W_3" type="standard_car" route="E_W" depart="113.0" departLane="random" departSpeed="10" />
    <vehicle id="N_S_4" type="standard_car" route="N_S" depart="155.0" departLane="random" departSpeed="10" />
    <vehicle id="W_E_5" type="standard_car" route="W_E" depart="162.0" departLane="random" departSpeed="10" />
    <vehicle id="E_W_6" type="standard_car" route="E_W" depart="164.0" departLane="random" departSpeed="10" />
    <vehicle id="S_N_7" type="standard_car" route="S_N" depart="171.0" departLane="random" departSpeed="10" />
    <vehicle id="S_E_8" type="standard_car" route="S_E" depart="202.0" departLane="random" departSpeed="10" />
    <vehicle id="E_W_9" type="standard_car" route="E_W" depart="209.0" departLane="random" departSpeed="10" />
    <vehicle id="S_W_10" type="standard_car" route="S_W" depart="227.0" departLane="random" departSpeed="10" />
    <vehicle id="E_W_11" type="standard_car" route="E_W" depart="244.0" departLane="random" departSpeed="10" />
    <vehicle id="S_N_12" type="standard_car" route="S_N" depart="254.0" departLane="random" departSpeed="10" />
    <vehicle id="W_S_13" type="standard_car" route="W_S" depart="262.0" departLane="random" departSpeed="10" />
    <vehicle id="E_N_14" type="standard_car" route="E_N" depart="284.0" departLane="random" departSpeed="10" />
    <vehicle id="E_N_15" type="standard_car" route="E_N" depart="284.0" departLane="random" departSpeed="10" />
    <vehicle id="E_W_16" type="standard_car" route="E_W" depart="288.0" departLane="random" departSpeed="10" />
    <vehicle id="N_S_17" type="standard_car" route="N_S" depart="292.0" departLane="random" departSpeed="10" />
    <vehicle id="E_S_18" type="standard_car" route="E_S" depart="305.0" departLane="random" departSpeed="10" />
    <vehicle id="S_E_19" type="standard_car" route="S_E" depart="306.0" departLane="random" departSpeed="10" />
    <vehicle id="E_W_20" type="standard_car" route="E_W" depart="307.0" departLane="random" departSpeed="10" />
    <vehicle id="N_S_21" type="standard_car" route="N_S" depart="314.0" departLane="random" departSpeed="10" />
    <vehicle id="E_N_22" type="standard_car" route="E_N" depart="316.0" departLane="random" departSpeed="10" />
    <vehicle id="W_S_23" type="standard_car" route="W_S" depart="316.0" departLane="random" departSpeed="10" />
    <vehicle id="S_E_24" type="standard_car" route="S_E" depart="324.0" departLane="random" departSpeed="10" />
    <vehicle id="E_W_25" type="standard_car" route="E_W" depart="325.0" departLane="random" departSpeed="10" />
    <vehicle id="S_E_26" type="standard_car" route="S_E" depart="327.0" departLane="random" departSpeed="10" />
    <vehicle id="N_E_27" type="standard_car" route="N_E" depart="329.0" departLane="random" departSpeed="10" />
    <vehicle id="E_W_28" type="standard_car" route="E_W" depart="333.0" departLane="random" departSpeed="10" />
    <vehicle id="N_S_29" type="standard_car" route="N_S" depart="337.0" departLane="random" departSpeed="10" />
    <vehicle id="S_N_30" type="standard_car" route="S_N" depart="349.0" departLane="random" departSpeed="10" />
    <vehicle id="W_E_31" type="standard_car" route="W_E" depart="350.0" departLane="random" departSpeed="10" />
    <vehicle id="S_N_32" type="standard_car" route="S_N" depart="351.0" departLane="random" departSpeed="10" />
    <vehicle id="N_S_33" type="standard_car" route="N_S" depart="358.0" departLane="random" departSpeed="10" />
    <vehicle id="E_W_34" type="standard_car" route="E_W" depart="359.0" departLane="random" departSpeed="10" />
    <vehicle id="W_E_35" type="standard_car" route="W_E" depart="364.0" departLane="random" departSpeed="10" />
    <vehicle id="N_S_36" type="standard_car" route="N_S" depart="370.0" departLane="random" departSpeed="10" />
    <vehicle id="S_N_37" type="standard_car" route="S_N" depart="370.0" departLane="random" departSpeed="10" />
    <vehicle id="W_E_38" type="standard_car" route="W_E" depart="373.0" departLane="random" departSpeed="10" />
    <vehicle id="W_S_39" type="standard_car" route="W_S" depart="378.0" departLane="random" departSpeed="10" />
    <vehicle id="N_S_40" type="standard_car" route="N_S" depart="384.0" departLane="random" departSpeed="10" />
    <vehicle id="E_W_41" type="standard_car" route="E_W" depart="384.0" departLane="random" departSpeed="10" />
    <vehicle id="S_N_42" type="standard_car" route="S_N" depart="385.0" departLane="random" departSpeed="10" />
    <vehicle id="W_E_43" type="standard_car" route="W_E" depart="386.0" departLane="random" departSpeed="10" />
    <vehicle id="W_E_44" type="standard_car" route="W_E" depart="388.0" departLane="random" departSpeed="10" />
    <vehicle id="E_W_45" type="standard_car" route="E_W" depart="389.0" departLane="random" departSpeed="10" />
    <vehicle id="E_W_46" type="standard_car" route="E_W" depart="390.0" departLane="random" departSpeed="10" />
    <vehicle id="N_S_47" type="standard_car" route="N_S" depart="396.0" departLane="random" departSpeed="10" />
    <vehicle id="N_S_48" type="standard_car" route="N_S" depart="397.0" departLane="random" departSpeed="10" />
    <vehicle id="W_E_49" type="standard_car" route="W_E" depart="413.0" departLane="random" departSpeed="10" />
    <vehicle id="E_W_50" type="standard_car" route="E_W" depart="416.0" departLane="random" departSpeed="10" />
    <vehicle id="S_W_51" type="standard_car" route="S_W" depart="417.0" departLane="random" departSpeed="10" />
    <vehicle id="E_W_52" type="standard_car" route="E_W" depart="438.0" departLane="random" departSpeed="10" />
    <vehicle id="W_E_53" type="standard_car" route="W_E" depart="440.0" departLane="random" departSpeed="10" />
    <vehicle id="S_N_54" type="standard_car" route="S_N" depart="441.0" departLane="random" departSpeed="10" />
    <vehicle id="W_E_55" type="standard_car" route="W_E" depart="441.0" departLane="random" departSpeed="10" />
    <vehicle id="E_S_56" type="standard_car" route="E_S" depart="441.0" departLane="random" departSpeed="10" />
    <vehicle id="W_E_57" type="standard_car" route="W_E" depart="444.0" departLane="random" departSpeed="10" />
    <vehicle id="N_E_58" type="standard_car" route="N_E" depart="445.0" departLane="random" departSpeed="10" />
    <vehicle id="W_E_59" type="standard_car" route="W_E" depart="446.0" departLane="random" departSpeed="10" />
    <vehicle id="N_S_60" type="standard_car" route="N_S" depart="449.0" departLane="random" departSpeed="10" />
    <vehicle id="E_N_61" type="standard_car" route="E_N" depart="453.0" departLane="random" departSpeed="10" />
    <vehicle id="E_W_62" type="standard_car" route="E_W" depart="453.0" departLane="random" departSpeed="10" />
    <vehicle id="S_N_63" type="standard_car" route="S_N" depart="453.0" departLane="random" departSpeed="10" />
    <vehicle id="N_S_64" type="standard_car" route="N_S" depart="460.0" departLane="random" departSpeed="10" />
    <vehicle id="S_N_65" type="standard_car" route="S_N" depart="462.0" departLane="random" departSpeed="10" />
    <vehicle id="S_N_66" type="standard_car" route="S_N" depart="466.0" departLane="random" departSpeed="10" />
    <vehicle id="E_W_67" type="standard_car" route="E_W" depart="471.0" departLane="random" departSpeed="10" />
    <vehicle id="N_S_68" type="standard_car" route="N_S" depart="487.0" departLane="random" departSpeed="10" />
    <vehicle id="N_S_69" type="standard_car" route="N_S" depart="503.0" departLane="random" departSpeed="10" />
    <vehicle id="W_E_70" type="standard_car" route="W_E" depart="504.0" departLane="random" departSpeed="10" />
    <vehicle id="N_S_71" type="standard_car" route="N_S" depart="510.0" departLane="random" departSpeed="10" />
    <vehicle id="S_E_72" type="standard_car" route="S_E" depart="513.0" departLane="random" departSpeed="10" />
    <vehicle id="W_E_73" type="standard_car" route="W_E" depart="517.0" departLane="random" departSpeed="10" />
    <vehicle id="N_S_74" type="standard_car" route="N_S" depart="519.0" departLane="random" departSpeed="10" />
    <vehicle id="S_N_75" type="standard_car" route="S_N" depart="521.0" departLane="random" departSpeed="10" />
    <vehicle id="S_N_76" type="standard_car" route="S_N" depart="524.0" departLane="random" departSpeed="10" />
    <vehicle id="E_W_77" type="standard_car" route="E_W" depart="524.0" departLane="random" departSpeed="10" />
    <vehicle id="N_S_78" type="standard_car" route="N_S" depart="526.0" departLane="random" departSpeed="10" />
    <vehicle id="E_W_79" type="standard_car" route="E_W" depart="530.0" departLane="random" departSpeed="10" />
    <vehicle id="N_E_80" type="standard_car" route="N_E" depart="538.0" departLane="random" departSpeed="10" />
    <vehicle id="W_E_81" type="standard_car" route="W_E" depart="539.0" departLane="random" departSpeed="10" />
    <vehicle id="N_W_82" type="standard_car" route="N_W" depart="545.0" departLane="random" departSpeed="10" />
    <vehicle id="W_E_83" type="standard_car" route="W_E" depart="553.0" departLane="random" departSpeed="10" />
    <vehicle id="E_N_84" type="standard_car" route="E_N" depart="555.0" departLane="random" departSpeed="10" />
    <vehicle id="N_S_85" type="standard_car" route="N_S" depart="556.0" departLane="random" departSpeed="10" />
    <vehicle id="W_S_86" type="standard_car" route="W_S" depart="556.0" departLane="random" departSpeed="10" />
    <vehicle id="N_S_87" type="standard_car" route="N_S" depart="556.0" departLane="random" departSpeed="10" />
    <vehicle id="W_N_88" type="standard_car" route="W_N" depart="556.0" departLane="random" departSpeed="10" />
    <vehicle id="E_N_89" type="standard_car" route="E_N" depart="557.0" departLane="random" departSpeed="10" />
    <vehicle id="S_N_90" type="standard_car" route="S_N" depart="559.0" departLane="random" departSpeed="10" />
    <vehicle id="E_W_91" type="standard_car" route="E_W" depart="560.0" departLane="random" departSpeed="10" />
    <vehicle id="N_S_92" type="standard_car" route="N_S" depart="560.0" departLane="random" departSpeed="10" />
    <vehicle id="E_W_93" type="standard_car" route="E_W" depart="562.0" departLane="random" departSpeed="10" />
    <vehicle id="E_W_94" type="standard_car" route="E_W" depart="563.0" departLane="random" departSpeed="10" />
    <vehicle id="N_E_95" type="standard_car" route="N_E" depart="564.0" departLane="random" departSpeed="10" />
    <vehicle id="N_S_96" type="standard_car" route="N_S" depart="564.0" departLane="random" departSpeed="10" />
    <vehicle id="N_S_97" type="standard_car" route="N_S" depart="565.0" departLane="random" departSpeed="10" />
    <vehicle id="S_N_98" type="standard_car" route="S_N" depart="566.0" departLane="random" departSpeed="10" />
    <vehicle id="E_W_99" type="standard_car" route="E_W" depart="568.0" departLane="random" departSpeed="10" />
    <vehicle id="W_N_100" type="standard_car" route="W_N" depart="572.0" departLane="random" departSpeed="10" />
    <vehicle id="E_W_101" type="standard_car" route="E_W" depart="580.0" departLane="random" departSpeed="10" />
    <vehicle id="E_W_102" type="standard_car" route="E_W" depart="591.0" departLane="random" departSpeed="10" />
    <vehicle id="W_E_103" type="standard_car" route="W_E" depart="596.0" departLane="random" departSpeed="10" />
    <vehicle id="W_E_104" type="standard_car" route="W_E" depart="598.0" departLane="random" departSpeed="10" />
    <vehicle id="N_S_105" type="standard_car" route="N_S" depart="602.0" departLane="random" departSpeed="10" />
    <vehicle id="E_N_106" type="standard_car" route="E_N" depart="603.0" departLane="random" departSpeed="10" />
    <vehicle id="S_N_107" type="standard_car" route="S_N" depart="607.0" departLane="random" departSpeed="10" />
    <vehicle id="E_W_108" type="standard_car" route="E_W" depart="607.0" departLane="random" departSpeed="10" />
    <vehicle id="S_N_109" type="standard_car" route="S_N" depart="607.0" departLane="random" departSpeed="10" />
    <vehicle id="W_E_110" type="standard_car" route="W_E" depart="611.0" departLane="random" departSpeed="10" />
    <vehicle id="W_E_111" type="standard_car" route="W_E" depart="619.0" departLane="random" departSpeed="10" />
    <vehicle id="N_S_112" type="standard_car" route="N_S" depart="624.0" departLane="random" departSpeed="10" />
    <vehicle id="S_N_113" type="standard_car" route="S_N" depart="626.0" departLane="random" departSpeed="10" />
    <vehicle id="E_W_114" type="standard_car" route="E_W" depart="632.0" departLane="random" departSpeed="10" />
    <vehicle id="W_E_115" type="standard_car" route="W_E" depart="632.0" departLane="random" departSpeed="10" />
    <vehicle id="S_N_116" type="standard_car" route="S_N" depart="640.0" departLane="random" departSpeed="10" />
    <vehicle id="W_E_117" type="standard_car" route="W_E" depart="641.0" departLane="random" departSpeed="10" />
    <vehicle id="W_E_118" type="standard_car" route="W_E" depart="641.0" departLane="random" departSpeed="10" />
    <vehicle id="W_S_119" type="standard_car" route="W_S" depart="643.0" departLane="random" departSpeed="10" />
    <vehicle id="W_E_120" type="standard_car" route="W_E" depart="645.0" departLane="random" departSpeed="10" />
    <vehicle id="E_W_121" type="standard_car" route="E_W" depart="653.0" departLane="random" departSpeed="10" />
    <vehicle id="S_N_122" type="standard_car" route="S_N" depart="654.0" departLane="random" departSpeed="10" />
    <vehicle id="E_W_123" type="standard_car" route="E_W" depart="656.0" departLane="random" departSpeed="10" />
    <vehicle id="E_W_124" type="standard_car" route="E_W" depart="657.0" departLane="random" departSpeed="10" />
    <vehicle id="S_N_125" type="standard_car" route="S_N" depart="657.0" departLane="random" departSpeed="10" />
    <vehicle id="S_N_126" type="standard_car" route="S_N" depart="659.0" departLane="random" departSpeed="10" />
    <vehicle id="E_W_127" type="standard_car" route="E_W" depart="659.0" departLane="random" departSpeed="10" />
    <vehicle id="N_S_128" type="standard_car" route="N_S" depart="660.0" departLane="random" departSpeed="10" />
    <vehicle id="W_S_129" type="standard_car" route="W_S" depart="661.0" departLane="random" departSpeed="10" />
    <vehicle id="S_W_130" type="standard_car" route="S_W" depart="663.0" departLane="random" departSpeed="10" />
    <vehicle id="E_W_131" type="standard_car" route="E_W" depart="665.0" departLane="random" departSpeed="10" />
    <vehicle id="W_E_132" type="standard_car" route="W_E" depart="665.0" departLane="random" departSpeed="10" />
    <vehicle id="E_S_133" type="standard_car" route="E_S" depart="673.0" departLane="random" departSpeed="10" />
    <vehicle id="E_W_134" type="standard_car" route="E_W" depart="675.0" departLane="random" departSpeed="10" />
    <vehicle id="E_W_135" type="standard_car" route="E_W" depart="684.0" departLane="random" departSpeed="10" />
    <vehicle id="W_E_136" type="standard_car" route="W_E" depart="688.0" departLane="random" departSpeed="10" />
    <vehicle id="E_S_137" type="standard_car" route="E_S" depart="691.0" departLane="random" departSpeed="10" />
    <vehicle id="N_S_138" type="standard_car" route="N_S" depart="692.0" departLane="random" departSpeed="10" />
    <vehicle id="W_E_139" type="standard_car" route="W_E" depart="694.0" departLane="random" departSpeed="10" />
    <vehicle id="E_W_140" type="standard_car" route="E_W" depart="703.0" departLane="random" departSpeed="10" />
    <vehicle id="W_S_141" type="standard_car" route="W_S" depart="706.0" departLane="random" departSpeed="10" />
    <vehicle id="N_W_142" type="standard_car" route="N_W" depart="707.0" departLane="random" departSpeed="10" />
    <vehicle id="E_W_143" type="standard_car" route="E_W" depart="708.0" departLane="random" departSpeed="10" />
    <vehicle id="E_W_144" type="standard_car" route="E_W" depart="714.0" departLane="random" departSpeed="10" />
    <vehicle id="N_S_145" type="standard_car" route="N_S" depart="715.0" departLane="random" departSpeed="10" />
    <vehicle id="N_E_146" type="standard_car" route="N_E" depart="729.0" departLane="random" departSpeed="10" />
    <vehicle id="E_W_147" type="standard_car" route="E_W" depart="730.0" departLane="random" departSpeed="10" />
    <vehicle id="N_S_148" type="standard_car" route="N_S" depart="733.0" departLane="random" departSpeed="10" />
    <vehicle id="N_S_149" type="standard_car" route="N_S" depart="733.0" departLane="random" departSpeed="10" />
    <vehicle id="E_W_150" type="standard_car" route="E_W" depart="733.0" departLane="random" departSpeed="10" />
    <vehicle id="N_W_151" type="standard_car" route="N_W" depart="741.0" departLane="random" departSpeed="10" />
    <vehicle id="S_N_152" type="standard_car" route="S_N" depart="745.0" departLane="random" departSpeed="10" />
    <vehicle id="E_W_153" type="standard_car" route="E_W" depart="745.0" departLane="random" departSpeed="10" />
    <vehicle id="E_N_154" type="standard_car" route="E_N" depart="751.0" departLane="random" departSpeed="10" />
    <vehicle id="N_S_155" type="standard_car" route="N_S" depart="753.0" departLane="random" departSpeed="10" />
    <vehicle id="W_E_156" type="standard_car" route="W_E" depart="753.0" departLane="random" departSpeed="10" />
    <vehicle id="N_S_157" type="standard_car" route="N_S" depart="755.0" departLane="random" departSpeed="10" />
    <vehicle id="S_N_158" type="standard_car" route="S_N" depart="756.0" departLane="random" departSpeed="10" />
    <vehicle id="S_W_159" type="standard_car" route="S_W" depart="757.0" departLane="random" departSpeed="10" />
    <vehicle id="W_E_160" type="standard_car" route="W_E" depart="758.0" departLane="random" departSpeed="10" />
    <vehicle id="N_E_161" type="standard_car" route="N_E" depart="760.0" departLane="random" departSpeed="10" />
    <vehicle id="E_W_162" type="standard_car" route="E_W" depart="761.0" departLane="random" departSpeed="10" />
    <vehicle id="S_E_163" type="standard_car" route="S_E" depart="762.0" departLane="random" departSpeed="10" />
    <vehicle id="W_E_164" type="standard_car" route="W_E" depart="767.0" departLane="random" departSpeed="10" />
    <vehicle id="N_S_165" type="standard_car" route="N_S" depart="770.0" departLane="random" departSpeed="10" />
    <vehicle id="S_N_166" type="standard_car" route="S_N" depart="774.0" departLane="random" departSpeed="10" />
    <vehicle id="S_N_167" type="standard_car" route="S_N" depart="775.0" departLane="random" departSpeed="10" />
    <vehicle id="S_N_168" type="standard_car" route="S_N" depart="776.0" departLane="random" departSpeed="10" />
    <vehicle id="N_S_169" type="standard_car" route="N_S" depart="776.0" departLane="random" departSpeed="10" />
    <vehicle id="N_S_170" type="standard_car" route="N_S" depart="777.0" departLane="random" departSpeed="10" />
    <vehicle id="S_N_171" type="standard_car" route="S_N" depart="779.0" departLane="random" departSpeed="10" />
    <vehicle id="N_W_172" type="standard_car" route="N_W" depart="780.0" departLane="random" departSpeed="10" />
    <vehicle id="S_N_173" type="standard_car" route="S_N" depart="782.0" departLane="random" departSpeed="10" />
    <vehicle id="W_E_174" type="standard_car" route="W_E" depart="783.0" departLane="random" departSpeed="10" />
    <vehicle id="W_E_175" type="standard_car" route="W_E" depart="784.0" departLane="random" departSpeed="10" />
    <vehicle id="N_S_176" type="standard_car" route="N_S" depart="787.0" departLane="random" departSpeed="10" />
    <vehicle id="S_W_177" type="standard_car" route="S_W" depart="789.0" departLane="random" departSpeed="10" />
    <vehicle id="S_N_178" type="standard_car" route="S_N" depart="794.0" departLane="random" departSpeed="10" />
    <vehicle id="N_W_179" type="standard_car" route="N_W" depart="794.0" departLane="random" departSpeed="10" />
    <vehicle id="S_N_180" type="standard_car" route="S_N" depart="795.0" departLane="random" departSpeed="10" />
    <vehicle id="E_N_181" type="standard_car" route="E_N" depart="795.0" departLane="random" departSpeed="10" />
    <vehicle id="S_N_182" type="standard_car" route="S_N" depart="796.0" departLane="random" departSpeed="10" />
    <vehicle id="E_W_183" type="standard_car" route="E_W" depart="798.0" departLane="random" departSpeed="10" />
    <vehicle id="W_E_184" type="standard_car" route="W_E" depart="798.0" departLane="random" departSpeed="10" />
    <vehicle id="S_N_185" type="standard_car" route="S_N" depart="802.0" departLane="random" departSpeed="10" />
    <vehicle id="E_W_186" type="standard_car" route="E_W" depart="812.0" departLane="random" departSpeed="10" />
    <vehicle id="W_E_187" type="standard_car" route="W_E" depart="813.0" departLane="random" departSpeed="10" />
    <vehicle id="E_N_188" type="standard_car" route="E_N" depart="814.0" departLane="random" departSpeed="10" />
    <vehicle id="N_S_189" type="standard_car" route="N_S" depart="820.0" departLane="random" departSpeed="10" />
    <vehicle id="S_W_190" type="standard_car" route="S_W" depart="820.0" departLane="random" departSpeed="10" />
    <vehicle id="W_E_191" type="standard_car" route="W_E" depart="824.0" departLane="random" departSpeed="10" />
    <vehicle id="E_W_192" type="standard_car" route="E_W" depart="824.0" departLane="random" departSpeed="10" />
    <vehicle id="S_N_193" type="standard_car" route="S_N" depart="824.0" departLane="random" departSpeed="10" />
    <vehicle id="E_N_194" type="standard_car" route="E_N" depart="826.0" departLane="random" departSpeed="10" />
    <vehicle id="N_E_195" type="standard_car" route="N_E" depart="826.0" departLane="random" departSpeed="10" />
    <vehicle id="S_W_196" type="standard_car" route="S_W" depart="833.0" departLane="random" departSpeed="10" />
    <vehicle id="E_W_197" type="standard_car" route="E_W" depart="833.0" departLane="random" departSpeed="10" />
    <vehicle id="W_E_198" type="standard_car" route="W_E" depart="840.0" departLane="random" departSpeed="10" />
    <vehicle id="N_S_199" type="standard_car" route="N_S" depart="842.0" departLane="random" departSpeed="10" />
    <vehicle id="E_W_200" type="standard_car" route="E_W" depart="842.0" departLane="random" departSpeed="10" />
    <vehicle id="W_N_201" type="standard_car" route="W_N" depart="845.0" departLane="random" departSpeed="10" />
    <vehicle id="S_N_202" type="standard_car" route="S_N" depart="847.0" departLane="random" departSpeed="10" />
    <vehicle id="N_S_203" type="standard_car" route="N_S" depart="849.0" departLane="random" departSpeed="10" />
    <vehicle id="E_W_204" type="standard_car" route="E_W" depart="852.0" departLane="random" departSpeed="10" />
    <vehicle id="S_N_205" type="standard_car" route="S_N" depart="853.0" departLane="random" departSpeed="10" />
    <vehicle id="W_S_206" type="standard_car" route="W_S" depart="856.0" departLane="random" departSpeed="10" />
    <vehicle id="S_N_207" type="standard_car" route="S_N" depart="861.0" departLane="random" departSpeed="10" />
    <vehicle id="S_N_208" type="standard_car" route="S_N" depart="863.0" departLane="random" departSpeed="10" />
    <vehicle id="E_W_209" type="standard_car" route="E_W" depart="867.0" departLane="random" departSpeed="10" />
    <vehicle id="S_N_210" type="standard_car" route="S_N" depart="869.0" departLane="random" departSpeed="10" />
    <vehicle id="W_S_211" type="standard_car" route="W_S" depart="871.0" departLane="random" departSpeed="10" />
    <vehicle id="W_E_212" type="standard_car" route="W_E" depart="873.0" departLane="random" departSpeed="10" />
    <vehicle id="E_N_213" type="standard_car" route="E_N" depart="873.0" departLane="random" departSpeed="10" />
    <vehicle id="E_W_214" type="standard_car" route="E_W" depart="878.0" departLane="random" departSpeed="10" />
    <vehicle id="N_E_215" type="standard_car" route="N_E" depart="882.0" departLane="random" departSpeed="10" />
    <vehicle id="E_W_216" type="standard_car" route="E_W" depart="883.0" departLane="random" departSpeed="10" />
    <vehicle id="S_N_217" type="standard_car" route="S_N" depart="884.0" departLane="random" departSpeed="10" />
    <vehicle id="E_W_218" type="standard_car" route="E_W" depart="884.0" departLane="random" departSpeed="10" />
    <vehicle id="W_E_219" type="standard_car" route="W_E" depart="885.0" departLane="random" departSpeed="10" />
    <vehicle id="E_W_220" type="standard_car" route="E_W" depart="886.0" departLane="random" departSpeed="10" />
    <vehicle id="S_N_221" type="standard_car" route="S_N" depart="889.0" departLane="random" departSpeed="10" />
    <vehicle id="E_W_222" type="standard_car" route="E_W" depart="889.0" departLane="random" departSpeed="10" />
    <vehicle id="E_W_223" type="standard_car" route="E_W" depart="890.0" departLane="random" departSpeed="10" />
    <vehicle id="E_S_224" type="standard_car" route="E_S" depart="895.0" departLane="random" departSpeed="10" />
    <vehicle id="W_E_225" type="standard_car" route="W_E" depart="895.0" departLane="random" departSpeed="10" />
    <vehicle id="S_N_226" type="standard_car" route="S_N" depart="896.0" departLane="random" departSpeed="10" />
    <vehicle id="E_W_227" type="standard_car" route="E_W" depart="897.0" departLane="random" departSpeed="10" />
    <vehicle id="E_W_228" type="standard_car" route="E_W" depart="899.0" departLane="random" departSpeed="10" />
    <vehicle id="S_N_229" type="standard_car" route="S_N" depart="899.0" departLane="random" departSpeed="10" />
    <vehicle id="N_S_230" type="standard_car" route="N_S" depart="900.0" departLane="random" departSpeed="10" />
    <vehicle id="S_N_231" type="standard_car" route="S_N" depart="905.0" departLane="random" departSpeed="10" />
    <vehicle id="S_N_232" type="standard_car" route="S_N" depart="906.0" departLane="random" departSpeed="10" />
    <vehicle id="N_S_233" type="standard_car" route="N_S" depart="908.0" departLane="random" departSpeed="10" />
    <vehicle id="W_E_234" type="standard_car" route="W_E" depart="908.0" departLane="random" departSpeed="10" />
    <vehicle id="E_S_235" type="standard_car" route="E_S" depart="913.0" departLane="random" departSpeed="10" />
    <vehicle id="S_W_236" type="standard_car" route="S_W" depart="920.0" departLane="random" departSpeed="10" />
    <vehicle id="N_S_237" type="standard_car" route="N_S" depart="922.0" departLane="random" departSpeed="10" />
    <vehicle id="N_S_238" type="standard_car" route="N_S" depart="924.0" departLane="random" departSpeed="10" />
    <vehicle id="E_W_239" type="standard_car" route="E_W" depart="927.0" departLane="random" departSpeed="10" />
    <vehicle id="W_E_240" type="standard_car" route="W_E" depart="927.0" departLane="random" departSpeed="10" />
    <vehicle id="N_S_241" type="standard_car" route="N_S" depart="927.0" departLane="random" departSpeed="10" />
    <vehicle id="S_N_242" type="standard_car" route="S_N" depart="929.0" departLane="random" departSpeed="10" />
    <vehicle id="S_E_243" type="standard_car" route="S_E" depart="930.0" departLane="random" departSpeed="10" />
    <vehicle id="E_W_244" type="standard_car" route="E_W" depart="931.0" departLane="random" departSpeed="10" />
    <vehicle id="E_W_245" type="standard_car" route="E_W" depart="932.0" departLane="random" departSpeed="10" />
    <vehicle id="S_E_246" type="standard_car" route="S_E" depart="933.0" departLane="random" departSpeed="10" />
    <vehicle id="E_W_247" type="standard_car" route="E_W" depart="937.0" departLane="random" departSpeed="10" />
    <vehicle id="E_W_248" type="standard_car" route="E_W" depart="938.0" departLane="random" departSpeed="10" />
    <vehicle id="W_E_249" type="standard_car" route="W_E" depart="942.0" departLane="random" departSpeed="10" />
    <vehicle id="W_N_250" type="standard_car" route="W_N" depart="942.0" departLane="random" departSpeed="10" />
    <vehicle id="S_N_251" type="standard_car" route="S_N" depart="945.0" departLane="random" departSpeed="10" />
    <vehicle id="W_E_252" type="standard_car" route="W_E" depart="946.0" departLane="random" departSpeed="10" />
    <vehicle id="W_E_253" type="standard_car" route="W_E" depart="947.0" departLane="random" departSpeed="10" />
    <vehicle id="S_W_254" type="standard_car" route="S_W" depart="947.0" departLane="random" departSpeed="10" />
    <vehicle id="E_W_255" type="standard_car" route="E_W" depart="947.0" departLane="random" departSpeed="10" />
    <vehicle id="W_E_256" type="standard_car" route="W_E" depart="951.0" departLane="random" departSpeed="10" />
    <vehicle id="S_W_257" type="standard_car" route="S_W" depart="954.0" departLane="random" departSpeed="10" />
    <vehicle id="E_W_258" type="standard_car" route="E_W" depart="957.0" departLane="random" departSpeed="10" />
    <vehicle id="E_W_259" type="standard_car" route="E_W" depart="960.0" departLane="random" departSpeed="10" />