<routes>
            <vType accel="1.0" decel="4.5" id="standard_car" length="5.0" minGap="2.5" maxSpeed="25" sigma="0.5" />

            <route id="W_N" edges="W2TL TL2N"/>
            <route id="W_E" edges="W2TL TL2E"/>
            <route id="W_S" edges="W2TL TL2S"/>
            <route id="N_W" edges="N2TL TL2W"/>
            <route id="N_E" edges="N2TL TL2E"/>
            <route id="N_S" edges="N2TL TL2S"/>
            <route id="E_W" edges="E2TL TL2W"/>
            <route id="E_N" edges="E2TL TL2N"/>
            <route id="E_S" edges="E2TL TL2S"/>
            <route id="S_W" edges="S2TL TL2W"/>
            <route id="S_N" edges="S2TL TL2N"/>
            <route id="S_E" edges="S2TL TL2E"/>
    <vehicle id="N_W_0" type="standard_car" route="N_W" depart="92.0" departLane="random" departSpeed="10" />
    <vehicle id="S_N_1" type="standard_car" route="S_N" depart="114.0" departLane="random" departSpeed="10" />
    <vehicle id="S_N_2" type="standard_car" route="S_N" depart="118.0" departLane="random" departSpeed="10" />
    <vehicle id="E_S_3" type="standard_car" route="E_S" depart="133.0" departLane="random" departSpeed="10" />
    <vehicle id="E_W_4" type="standard_car" route="E_W" depart="156.0" departLane="random" departSpeed="10" />
    <vehicle id="W_N_5" type="standard_car" route="W_N" depart="177.0" departLane="random" departSpeed="10" />
    <vehicle id="W_N_6" type="standard_car" route="W_N" depart="178.0" departLane="random" departSpeed="10" />
    <vehicle id="E_W_7" type="standard_car" route="E_W" depart="179.0" departLane="random" departSpeed="10" />
    <vehicle id="W_S_8" type="standard_car" route="W_S" depart="182.0" departLane="random" departSpeed="10" />
    <vehicle id="S_W_9" type="standard_car" route="S_W" depart="184.0" departLane="random" departSpeed="10" />
    <vehicle id="S_N_10" type="standard_car" route="S_N" depart="188.0" departLane="random" departSpeed="10" />
    <vehicle id="E_N_11" type="standard_car" route="E_N" depart="189.0" departLane="random" departSpeed="10" />
    <vehicle id="E_W_12" type="standard_car" route="E_W" depart="195.0" departLane="random" departSpeed="10" />
    <vehicle id="W_N_13" type="standard_car" route="W_N" depart="209.0" departLane="random" departSpeed="10" />
    <vehicle id="N_S_14" type="standard_car" route="N_S" depart="210.0" departLane="random" departSpeed="10" />
    <vehicle id="E_W_15" type="standard_car" route="E_W" depart="214.0" departLane="random" departSpeed="10" />
    <vehicle id="N_S_16" type="standard_car" route="N_S" depart="222.0" departLane="random" departSpeed="10" />
    <vehicle id="N_S_17" type="standard_car" route="N_S" depart="226.0" departLane="random" departSpeed="10" />
    <vehicle id="E_W_18" type="standard_car" route="E_W" depart="236.0" departLane="random" departSpeed="10" />
    <vehicle id="N_S_19" type="standard_car" route="N_S" depart="239.0" departLane="random" departSpeed="10" />
    <vehicle id="N_S_20" type="standard_car" route="N_S" depart="242.0" departLane="random" departSpeed="10" />
    <vehicle id="S_N_21" type="standard_car" route="S_N" depart="243.0" departLane="random" departSpeed="10" />
    <vehicle id="E_W_22" type="standard_car" route="E_W" depart="262.0" departLane="random" departSpeed="10" />
    <vehicle id="N_S_23" type="standard_car" route="N_S" depart="272.0" departLane="random" departSpeed="10" />
    <vehicle id="N_S_24" type="standard_car" route="N_S" depart="276.0" departLane="random" departSpeed="10" />
    <vehicle id="N_S_25" type="standard_car" route="N_S" depart="281.0" departLane="random" departSpeed="10" />
    <vehicle id="W_N_26" type="standard_car" route="W_N" depart="286.0" departLane="random" departSpeed="10" />
    <vehicle id="S_W_27" type="standard_car" route="S_W" depart="293.0" departLane="random" departSpeed="10" />
    <vehicle id="W_E_28" type="standard_car" route="W_E" depart="298.0" departLane="random" departSpeed="10" />
    <vehicle id="N_S_29" type="standard_car" route="N_S" depart="303.0" departLane="random" departSpeed="10" />
    <vehicle id="E_W_30" type="standard_car" route="E_W" depart="307.0" departLane="random" departSpeed="10" />
    <vehicle id="S_N_31" type="standard_car" route="S_N" depart="310.0" departLane="random" departSpeed="10" />
    <vehicle id="W_E_32" type="standard_car" route="W_E" depart="312.0" departLane="random" departSpeed="10" />
    <vehicle id="W_E_33" type="standard_car" route="W_E" depart="313.0" departLane="random" departSpeed="10" />
    <vehicle id="W_E_34" type="standard_car" route="W_E" depart="317.0" departLane="random" departSpeed="10" />
    <vehicle id="S_N_35" type="standard_car" route="S_N" depart="318.0" departLane="random" departSpeed="10" />
    <vehicle id="S_N_36" type="standard_car" route="S_N" depart="325.0" departLane="random" departSpeed="10" />
    <vehicle id="W_E_37" type="standard_car" route="W_E" depart="328.0" departLane="random" departSpeed="10" />
    <vehicle id="N_S_38" type="standard_car" route="N_S" depart="335.0" departLane="random" departSpeed="10" />
    <vehicle id="N_W_39" type="standard_car" route="N_W" depart="336.0" departLane="random" departSpeed="10" />
    <vehicle id="W_N_40" type="standard_car" route="W_N" depart="371.0" departLane="random" departSpeed="10" />
    <vehicle id="S_N_41" type="standard_car" route="S_N" depart="375.0" departLane="random" departSpeed="10" />
    <vehicle id="W_N_42" type="standard_car" route="W_N" depart="381.0" departLane="random" departSpeed="10" />
    <vehicle id="W_S_43" type="standard_car" route="W_S" depart="382.0" departLane="random" departSpeed="10" />
    <vehicle id="S_N_44" type="standard_car" route="S_N" depart="386.0" departLane="random" departSpeed="10" />
    <vehicle id="S_N_45" type="standard_car" route="S_N" depart="386.0" departLane="random" departSpeed="10" />
    <vehicle id="N_S_46" type="standard_car" route="N_S" depart="391.0" departLane="random" departSpeed="10" />
    <vehicle id="N_S_47" type="standard_car" route="N_S" depart="393.0" departLane="random" departSpeed="10" />
    <vehicle id="N_W_48" type="standard_car" route="N_W" depart="399.0" departLane="random" departSpeed="10" />
    <vehicle id="E_N_49" type="standard_car" route="E_N" depart="400.0" departLane="random" departSpeed="10" />
    <vehicle id="S_N_50" type="standard_car" route="S_N" depart="403.0" departLane="random" departSpeed="10" />
    <vehicle id="W_E_51" type="standard_car" route="W_E" depart="405.0" departLane="random" departSpeed="10" />
    <vehicle id="N_S_52" type="standard_car" route="N_S" depart="406.0" departLane="random" departSpeed="10" />
    <vehicle id="N_S_53" type="standard_car" route="N_S" depart="409.0" departLane="random" departSpeed="10" />
    <vehicle id="E_W_54" type="standard_car" route="E_W" depart="429.0" departLane="random" departSpeed="10" />
    <vehicle id="E_S_55" type="standard_car" route="E_S" depart="429.0" departLane="random" departSpeed="10" />
    <vehicle id="S_N_56" type="standard_car" route="S_N" depart="435.0" departLane="random" departSpeed="10" />
    <vehicle id="E_W_57" type="standard_car" route="E_W" depart="437.0" departLane="random" departSpeed="10" />
    <vehicle id="S_N_58" type="standard_car" route="S_N" depart="443.0" departLane="random" departSpeed="10" />
    <vehicle id="W_E_59" type="standard_car" route="W_E" depart="443.0" departLane="random" departSpeed="10" />
    <vehicle id="E_W_60" type="standard_car" route="E_W" depart="449.0" departLane="random" departSpeed="10" />
    <vehicle id="E_W_61" type="standard_car" route="E_W" depart="452.0" departLane="random" departSpeed="10" />
    <vehicle id="E_W_62" type="standard_car" route="E_W" depart="455.0" departLane="random" departSpeed="10" />
    <vehicle id="W_E_63" type="standard_car" route="W_E" depart="458.0" departLane="random" departSpeed="10" />
    <vehicle id="E_S_64" type="standard_car" route="E_S" depart="460.0" departLane="random" departSpeed="10" />
    <vehicle id="N_S_65" type="standard_car" route="N_S" depart="461.0" departLane="random" departSpeed="10" />
    <vehicle id="N_S_66" type="standard_car" route="N_S" depart="473.0" departLane="random" departSpeed="10" />
    <vehicle id="W_E_67" type="standard_car" route="W_E" depart="475.0" departLane="random" departSpeed="10" />
    <vehicle id="E_W_68" type="standard_car" route="E_W" depart="478.0" departLane="random" departSpeed="10" />
    <vehicle id="N_S_69" type="standard_car" route="N_S" depart="478.0" departLane="random" departSpeed="10" />
    <vehicle id="S_N_70" type="standard_car" route="S_N" depart="480.0" departLane="random" departSpeed="10" />
    <vehicle id="S_N_71" type="standard_car" route="S_N" depart="480.0" departLane="random" departSpeed="10" />
    <vehicle id="W_E_72" type="standard_car" route="W_E" depart="481.0" departLane="random" departSpeed="10" />
    <vehicle id="S_N_73" type="standard_car" route="S_N" depart="490.0" departLane="random" departSpeed="10" />
    <vehicle id="E_W_74" type="standard_car" route="E_W" depart="491.0" departLane="random" departSpeed="10" />
    <vehicle id="S_N_75" type="standard_car" route="S_N" depart="495.0" departLane="random" departSpeed="10" />
    <vehicle id="E_W_76" type="standard_car" route="E_W" depart="498.0" departLane="random" departSpeed="10" />
    <vehicle id="E_S_77" type="standard_car" route="E_S" depart="498.0" departLane="random" departSpeed="10" />
    <vehicle id="S_N_78" type="standard_car" route="S_N" depart="506.0" departLane="random" departSpeed="10" />
    <vehicle id="E_W_79" type="standard_car" route="E_W" depart="508.0" departLane="random" departSpeed="10" />
    <vehicle id="S_E_80" type="standard_car" route="S_E" depart="513.0" departLane="random" departSpeed="10" />
    <vehicle id="S_N_81" type="standard_car" route="S_N" depart="527.0" departLane="random" departSpeed="10" />
    <vehicle id="W_E_82" type="standard_car" route="W_E" depart="528.0" departLane="random" departSpeed="10" />
    <vehicle id="S_N_83" type="standard_car" route="S_N" depart="530.0" departLane="random" departSpeed="10" />
    <vehicle id="W_E_84" type="standard_car" route="W_E" depart="532.0" departLane="random" departSpeed="10" />
    <vehicle id="N_S_85" type="standard_car" route="N_S" depart="535.0" departLane="random" departSpeed="10" />
    <vehicle id="N_S_86" type="standard_car" route="N_S" depart="535.0" departLane="random" departSpeed="10" />
    <vehicle id="E_W_87" type="standard_car" route="E_W" depart="535.0" departLane="random" departSpeed="10" />
    <vehicle id="S_N_88" type="standard_car" route="S_N" depart="538.0" departLane="random" departSpeed="10" />
    <vehicle id="N_S_89" type="standard_car" route="N_S" depart="538.0" departLane="random" departSpeed="10" />
    <vehicle id="N_S_90" type="standard_car" route="N_S" depart="540.0" departLane="random" departSpeed="10" />
    <vehicle id="S_N_91" type="standard_car" route="S_N" depart="542.0" departLane="random" departSpeed="10" />
    <vehicle id="N_S_92" type="standard_car" route="N_S" depart="542.0" departLane="random" departSpeed="10" />
    <vehicle id="E_W_93" type="standard_car" route="E_W" depart="544.0" departLane="random" departSpeed="10" />
    <vehicle id="W_S_94" type="standard_car" route="W_S" depart="550.0" departLane="random" departSpeed="10" />
    <vehicle id="S_N_95" type="standard_car" route="S_N" depart="551.0" departLane="random" departSpeed="10" />
    <vehicle id="S_N_96" type="standard_car" route="S_N" depart="554.0" departLane="random" departSpeed="10" />
    <vehicle id="S_W_97" type="standard_car" route="S_W" depart="556.0" departLane="random" departSpeed="10" />
    <vehicle id="E_N_98" type="standard_car" route="E_N" depart="563.0" departLane="random" departSpeed="10" />
    <vehicle id="S_N_99" type="standard_car" route="S_N" depart="569.0" departLane="random" departSpeed="10" />
    <vehicle id="E_W_100" type="standard_car" route="E_W" depart="572.0" departLane="random" departSpeed="10" />
    <vehicle id="E_W_101" type="standard_car" route="E_W" depart="578.0" departLane="random" departSpeed="10" />
    <vehicle id="W_N_102" type="standard_car" route="W_N" depart="582.0" departLane="random" departSpeed="10" />
    <vehicle id="E_W_103" type="standard_car" route="E_W" depart="584.0" departLane="random" departSpeed="10" />
    <vehicle id="W_S_104" type="standard_car" route="W_S" depart="586.0" departLane="random" departSpeed="10" />
    <vehicle id="S_N_105" type="standard_car" route="S_N" depart="589.0" departLane="random" departSpeed="10" />
    <vehicle id="E_W_106" type="standard_car" route="E_W" depart="601.0" departLane="random" departSpeed="10" />
    <vehicle id="N_S_107" type="standard_car" route="N_S" depart="605.0" departLane="random" departSpeed="10" />
    <vehicle id="E_W_108" type="standard_car" route="E_W" depart="605.0" departLane="random" departSpeed="10" />
    <vehicle id="S_N_109" type="standard_car" route="S_N" depart="608.0" departLane="random" departSpeed="10" />
    <vehicle id="W_E_110" type="standard_car" route="W_E" depart="611.0" departLane="random" departSpeed="10" />
    <vehicle id="W_E_111" type="standard_car" route="W_E" depart="619.0" departLane="random" departSpeed="10" />
    <vehicle id="S_N_112" type="standard_car" route="S_N" depart="620.0" departLane="random" departSpeed="10" />
    <vehicle id="N_S_113" type="standard_car" route="N_S" depart="623.0" departLane="random" departSpeed="10" />
    <vehicle id="W_E_114" type="standard_car" route="W_E" depart="624.0" departLane="random" departSpeed="10" />
    <vehicle id="S_N_115" type="standard_car" route="S_N" depart="635.0" departLane="random" departSpeed="10" />
    <vehicle id="N_W_116" type="standard_car" route="N_W" depart="636.0" departLane="random" departSpeed="10" />
    <vehicle id="E_W_117" type="standard_car" route="E_W" depart="639.0" departLane="random" departSpeed="10" />
    <vehicle id="N_S_118" type="standard_car" route="N_S" depart="641.0" departLane="random" departSpeed="10" />
    <vehicle id="W_E_119" type="standard_car" route="W_E" depart="646.0" departLane="random" departSpeed="10" />
    <vehicle id="N_S_120" type="standard_car" route="N_S" depart="647.0" departLane="random" departSpeed="10" />
    <vehicle id="W_E_121" type="standard_car" route="W_E" depart="651.0" departLane="random" departSpeed="10" />
    <vehicle id="E_W_122" type="standard_car" route="E_W" depart="654.0" departLane="random" departSpeed="10" />
    <vehicle id="S_E_123" type="standard_car" route="S_E" depart="659.0" departLane="random" departSpeed="10" />
    <vehicle id="N_S_124" type="standard_car" route="N_S" depart="659.0" departLane="random" departSpeed="10" />
    <vehicle id="E_W_125" type="standard_car" route="E_W" depart="666.0" departLane="random" departSpeed="10" />
    <vehicle id="E_W_126" type="standard_car" route="E_W" depart="668.0" departLane="random" departSpeed="10" />
    <vehicle id="S_N_127" type="standard_car" route="S_N" depart="672.0" departLane="random" departSpeed="10" />
    <vehicle id="E_S_128" type="standard_car" route="E_S" depart="674.0" departLane="random" departSpeed="10" />
    <vehicle id="N_S_129" type="standard_car" route="N_S" depart="675.0" departLane="random" departSpeed="10" />
    <vehicle id="E_W_130" type="standard_car" route="E_W" depart="675.0" departLane="random" departSpeed="10" />
    <vehicle id="W_N_131" type="standard_car" route="W_N" depart="679.0" departLane="random" departSpeed="10" />
    <vehicle id="S_N_132" type="standard_car" route="S_N" depart="683.0" departLane="random" departSpeed="10" />
    <vehicle id="E_W_133" type="standard_car" route="E_W" depart="688.0" departLane="random" departSpeed="10" />
    <vehicle id="E_W_134" type="standard_car" route="E_W" depart="690.0" departLane="random" departSpeed="10" />
    <vehicle id="N_E_135" type="standard_car" route="N_E" depart="693.0" departLane="random" departSpeed="10" />
    <vehicle id="S_E_136" type="standard_car" route="S_E" depart="696.0" departLane="random" departSpeed="10" />
    <vehicle id="E_S_137" type="standard_car" route="E_S" depart="699.0" departLane="random" departSpeed="10" />
    <vehicle id="N_S_138" type="standard_car" route="N_S" depart="700.0" departLane="random" departSpeed="10" />
    <vehicle id="W_S_139" type="standard_car" route="W_S" depart="701.0" departLane="random" departSpeed="10" />
    <vehicle id="S_N_140" type="standard_car" route="S_N" depart="704.0" departLane="random" departSpeed="10" />
    <vehicle id="N_S_141" type="standard_car" route="N_S" depart="706.0" departLane="random" departSpeed="10" />
    <vehicle id="S_N_142" type="standard_car" route="S_N" depart="706.0" departLane="random" departSpeed="10" />
    <vehicle id="E_S_143" type="standard_car" route="E_S" depart="710.0" departLane="random" departSpeed="10" />
    <vehicle id="W_E_144" type="standard_car" route="W_E" depart="717.0" departLane="random" departSpeed="10" />
    <vehicle id="E_W_145" type="standard_car" route="E_W" depart="718.0" departLane="random" departSpeed="10" />
    <vehicle id="W_E_146" type="standard_car" route="W_E" depart="719.0" departLane="random" departSpeed="10" />
    <vehicle id="N_S_147" type="standard_car" route="N_S" depart="720.0" departLane="random" departSpeed="10" />
    <vehicle id="W_E_148" type="standard_car" route="W_E" depart="720.0" departLane="random" departSpeed="10" />
    <vehicle id="W_E_149" type="standard_car" route="W_E" depart="722.0" departLane="random" departSpeed="10" />
    <vehicle id="N_S_150" type="standard_car" route="N_S" depart="724.0" departLane="random" departSpeed="10" />
    <vehicle id="S_N_151" type="standard_car" route="S_N" depart="730.0" departLane="random" departSpeed="10" />
    <vehicle id="W_E_152" type="standard_car" route="W_E" depart="733.0" departLane="random" departSpeed="10" />
    <vehicle id="W_E_153" type="standard_car" route="W_E" depart="734.0" departLane="random" departSpeed="10" />
    <vehicle id="E_W_154" type="standard_car" route="E_W" depart="736.0" departLane="random" departSpeed="10" />
    <vehicle id="N_S_155" type="standard_car" route="N_S" depart="737.0" departLane="random" departSpeed="10" />
    <vehicle id="S_N_156" type="standard_car" route="S_N" depart="745.0" departLane="random" departSpeed="10" />
    <vehicle id="S_N_157" type="standard_car" route="S_N" depart="749.0" departLane="random" departSpeed="10" />
    <vehicle id="S_W_158" type="standard_car" route="S_W" depart="757.0" departLane="random" departSpeed="10" />
    <vehicle id="E_W_159" type="standard_car" route="E_W" depart="758.0" departLane="random" departSpeed="10" />
    <vehicle id="W_E_160" type="standard_car" route="W_E" depart="758.0" departLane="random" departSpeed="10" />
    <vehicle id="N_S_161" type="standard_car" route="N_S" depart="758.0" departLane="random" departSpeed="10" />
    <vehicle id="S_N_162" type="standard_car" route="S_N" depart="760.0" departLane="random" departSpeed="10" />
    <vehicle id="N_S_163" type="standard_car" route="N_S" depart="767.0" departLane="random" departSpeed="10" />
    <vehicle id="E_N_164" type="standard_car" route="E_N" depart="767.0" departLane="random" departSpeed="10" />
    <vehicle id="N_W_165" type="standard_car" route="N_W" depart="768.0" departLane="random" departSpeed="10" />
    <vehicle id="E_W_166" type="standard_car" route="E_W" depart="770.0" departLane="random" departSpeed="10" />
    <vehicle id="W_E_167" type="standard_car" route="W_E" depart="774.0" departLane="random" departSpeed="10" />
    <vehicle id="E_W_168" type="standard_car" route="E_W" depart="774.0" departLane="random" departSpeed="10" />
    <vehicle id="E_W_169" type="standard_car" route="E_W" depart="775.0" departLane="random" departSpeed="10" />
    <vehicle id="N_W_170" type="standard_car" route="N_W" depart="779.0" departLane="random" departSpeed="10" />
    <vehicle id="S_E_171" type="standard_car" route="S_E" depart="783.0" departLane="random" departSpeed="10" />
    <vehicle id="E_W_172" type="standard_car" route="E_W" depart="784.0" departLane="random" departSpeed="10" />
    <vehicle id="N_S_173" type="standard_car" route="N_S" depart="784.0" departLane="random" departSpeed="10" />
    <vehicle id="N_S_174" type="standard_car" route="N_S" depart="784.0" departLane="random" departSpeed="10" />
    <vehicle id="S_N_175" type="standard_car" route="S_N" depart="785.0" departLane="random" departSpeed="10" />
    <vehicle id="S_W_176" type="standard_car" route="S_W" depart="788.0" departLane="random" departSpeed="10" />
    <vehicle id="W_E_177" type="standard_car" route="W_E" depart="793.0" departLane="random" departSpeed="10" />
    <vehicle id="E_W_178" type="standard_car" route="E_W" depart="793.0" departLane="random" departSpeed="10" />
    <vehicle id="S_W_179" type="standard_car" route="S_W" depart="796.0" departLane="random" departSpeed="10" />
    <vehicle id="S_N_180" type="standard_car" route="S_N" depart="797.0" departLane="random" departSpeed="10" />
    <vehicle id="W_E_181" type="standard_car" route="W_E" depart="804.0" departLane="random" departSpeed="10" />
    <vehicle id="S_E_182" type="standard_car" route="S_E" depart="814.0" departLane="random" departSpeed="10" />
    <vehicle id="W_E_183" type="standard_car" route="W_E" depart="815.0" departLane="random" departSpeed="10" />
    <vehicle id="N_S_184" type="standard_car" route="N_S" depart="817.0" departLane="random" departSpeed="10" />
    <vehicle id="N_S_185" type="standard_car" route="N_S" depart="820.0" departLane="random" departSpeed="10" />
    <vehicle id="W_E_186" type="standard_car" route="W_E" depart="823.0" departLane="random" departSpeed="10" />
    <vehicle id="N_S_187" type="standard_car" route="N_S" depart="823.0" departLane="random" departSpeed="10" />
    <vehicle id="E_W_188" type="standard_car" route="E_W" depart="826.0" departLane="random" departSpeed="10" />
    <vehicle id="N_S_189" type="standard_car" route="N_S" depart="827.0" departLane="random" departSpeed="10" />
    <vehicle id="N_S_190" type="standard_car" route="N_S" depart="829.0" departLane="random" departSpeed="10" />
    <vehicle id="W_E_191" type="standard_car" route="W_E" depart="831.0" departLane="random" departSpeed="10" />
    <vehicle id="N_S_192" type="standard_car" route="N_S" depart="833.0" departLane="random" departSpeed="10" />
    <vehicle id="S_N_193" type="standard_car" route="S_N" depart="834.0" departLane="random" departSpeed="10" />
    <vehicle id="N_E_194" type="standard_car" route="N_E" depart="835.0" departLane="random" departSpeed="10" />
    <vehicle id="E_S_195" type="standard_car" route="E_S" depart="835.0" departLane="random" departSpeed="10" />
    <vehicle id="W_S_196" type="standard_car" route="W_S" depart="836.0" departLane="random" departSpeed="10" />
    <vehicle id="N_W_197" type="standard_car" route="N_W" depart="836.0" departLane="random" departSpeed="10" />
    <vehicle id="S_E_198" type="standard_car" route="S_E" depart="840.0" departLane="random" departSpeed="10" />
    <vehicle id="E_W_199" type="standard_car" route="E_W" depart="841.0" departLane="random" departSpeed="10" />
    <vehicle id="S_N_200" type="standard_car" route="S_N" depart="841.0" departLane="random" departSpeed="10" />
    <vehicle id="W_E_201" type="standard_car" route="W_E" depart="841.0" departLane="random" departSpeed="10" />
    <vehicle id="W_E_202" type="standard_car" route="W_E" depart="841.0" departLane="random" departSpeed="10" />
    <vehicle id="S_E_203" type="standard_car" route="S_E" depart="853.0" departLane="random" departSpeed="10" />
    <vehicle id="N_S_204" type="standard_car" route="N_S" depart="859.0" departLane="random" departSpeed="10" />
    <vehicle id="N_S_205" type="standard_car" route="N_S" depart="865.0" departLane="random" departSpeed="10" />
    <vehicle id="E_W_206" type="standard_car" route="E_W" depart="866.0" departLane="random" departSpeed="10" />
    <vehicle id="W_S_207" type="standard_car" route="W_S" depart="866.0" departLane="random" departSpeed="10" />
    <vehicle id="S_N_208" type="standard_car" route="S_N" depart="869.0" departLane="random" departSpeed="10" />
    <vehicle id="W_S_209" type="standard_car" route="W_S" depart="870.0" departLane="random" departSpeed="10" />
    <vehicle id="N_S_210" type="standard_car" route="N_S" depart="871.0" departLane="random" departSpeed="10" />
    <vehicle id="S_N_211" type="standard_car" route="S_N" depart="872.0" departLane="random" departSpeed="10" />
    <vehicle id="E_W_212" type="standard_car" route="E_W" depart="872.0" departLane="random" departSpeed="10" />
    <vehicle id="E_W_213" type="standard_car" route="E_W" depart="874.0" departLane="random" departSpeed="10" />
    <vehicle id="W_E_214" type="standard_car" route="W_E" depart="874.0" departLane="random" departSpeed="10" />
    <vehicle id="N_S_215" type="standard_car" route="N_S" depart="874.0" departLane="random" departSpeed="10" />
    <vehicle id="E_W_216" type="standard_car" route="E_W" depart="876.0" departLane="random" departSpeed="10" />
    <vehicle id="E_W_217" type="standard_car" route="E_W" depart="877.0" departLane="random" departSpeed="10" />
    <vehicle id="W_E_218" type="standard_car" route="W_E" depart="878.0" departLane="random" departSpeed="10" />
    <vehicle id="S_N_219" type="standard_car" route="S_N" depart="879.0" departLane="random" departSpeed="10" />
    <vehicle id="N_W_220" type="standard_car" route="N_W" depart="879.0" departLane="random" departSpeed="10" />
    <vehicle id="N_S_221" type="standard_car" route="N_S" depart="880.0" departLane="random" departSpeed="10" />
    <vehicle id="W_S_222" type="standard_car" route="W_S" depart="882.0" departLane="random" departSpeed="10" />
    <vehicle id="E_S_223" type="standard_car" route="E_S" depart="883.0" departLane="random" departSpeed="10" />
    <vehicle id="E_N_224" type="standard_car" route="E_N" depart="883.0" departLane="random" departSpeed="10" />
    <vehicle id="S_N_225" type="standard_car" route="S_N" depart="888.0" departLane="random" departSpeed="10" />
    <vehicle id="E_N_226" type="standard_car" route="E_N" depart="889.0" departLane="random" departSpeed="10" />
    <vehicle id="N_E_227" type="standard_car" route="N_E" depart="890.0" departLane="random" departSpeed="10" />
    <vehicle id="W_N_228" type="standard_car" route="W_N" depart="894.0" departLane="random" departSpeed="10" />
    <vehicle id="W_E_229" type="standard_car" route="W_E" depart="894.0" departLane="random" departSpeed="10" />
    <vehicle id="N_S_230" type="standard_car" route="N_S" depart="897.0" departLane="random" departSpeed="10" />
    <vehicle id="E_W_231" type="standard_car" route="E_W" depart="900.0" departLane="random" departSpeed="10" />
    <vehicle id="E_W_232" type="standard_car" route="E_W" depart="901.0" departLane="random" departSpeed="10" />
    <vehicle id="N_E_233" type="standard_car" route="N_E" depart="901.0" departLane="random" departSpeed="10" />
    <vehicle id="N_S_234" type="standard_car" route="N_S" depart="903.0" departLane="random" departSpeed="10" />
    <vehicle id="S_N_235" type="standard_car" route="S_N" depart="904.0" departLane="random" departSpeed="10" />
    <vehicle id="S_N_236" type="standard_car" route="S_N" depart="905.0" departLane="random" departSpeed="10" />
    <vehicle id="W_E_237" type="standard_car" route="W_E" depart="908.0" departLane="random" departSpeed="10" />
    <vehicle id="E_W_238" type="standard_car" route="E_W" depart="908.0" departLane="random" departSpeed="10" />
    <vehicle id="N_W_239" type="standard_car" route="N_W" depart="911.0" departLane="random" departSpeed="10" />
    <vehicle id="E_W_240" type="standard_car" route="E_W" depart="913.0" departLane="random" departSpeed="10" />
    <vehicle id="N_S_241" type="standard_car" route="N_S" depart="916.0" departLane="random" departSpeed="10" />
    <vehicle id="N_W_242" type="standard_car" route="N_W" depart="920.0" departLane="random" departSpeed="10" />
    <vehicle id="W_E_243" type="standard_car" route="W_E" depart="921.0" departLane="random" departSpeed="10" />
    <vehicle id="S_N_244" type="standard_car" route="S_N" depart="922.0" departLane="random" departSpeed="10" />
    <vehicle id="E_W_245" type="standard_car" route="E_W" depart="925.0" departLane="random" departSpeed="10" />
    <vehicle id="W_E_246" type="standard_car" route="W_E" depart="926.0" departLane="random" departSpeed="10" />
    <vehicle id="W_E_247" type="standard_car" route="W_E" depart="926.0" departLane="random" departSpeed="10" />
    <vehicle id="E_W_248" type="standard_car" route="E_W" depart="930.0" departLane="random" departSpeed="10" />
    <vehicle id="W_E_249" type="standard_car" route="W_E" depart="932.0" departLane="random" departSpeed="10" />
    <vehicle id="N_E_250" type="standard_car" route="N_E" depart="938.0" departLane="random" departSpeed="10" />
    <vehicle id="S_N_251" type="standard_car" route="S_N" depart="940.0" departLane="random" departSpeed="10" />
    <vehicle id="S_N_252" type="standard_car" route="S_N" depart="941.0" departLane="random" departSpeed="10" />
    <vehicle id="N_S_253" type="standard_car" route="N_S" depart="946.0" departLane="random" departSpeed="10" />
    <vehicle id="W_E_254" type="standard_car" route="W_E" depart="950.0" departLane="random" departSpeed="10" />
    <vehicle id="N_S_255" type="standard_car" route="N_S" depart="952.0" departLane="random" departSpeed="10" />
    <vehicle id="E_W_256" type="standard_car" route="E_W" depart="953.0" departLane="random" departSpeed="10" />
    <vehicle id="N_W_257" type="standard_car" route="N_W" depart="953.0" departLane="random" departSpeed="10" />
    <vehicle id="S_N_258" type="standard_car" route="S_N" depart="955.0" departLane="random" departSpeed="10" />
    <vehicle id="W_E_259" type="standard_car" route="W_E" depart="955.0" departLane="random" departSpeed="10" />