<routes>
            <vType accel="1.0" decel="4.5" id="standard_car" length="5.0" minGap="2.5" maxSpeed="25" sigma="0.5" />

            <route id="W_N" edges="W2TL TL2N"/>
            <route id="W_E" edges="W2TL TL2E"/>
            <route id="W_S" edges="W2TL TL2S"/>
            <route id="N_W" edges="N2TL TL2W"/>
            <route id="N_E" edges="N2TL TL2E"/>
            <route id="N_S" edges="N2TL TL2S"/>
            <route id="E_W" edges="E2TL TL2W"/>
            <route id="E_N" edges="E2TL TL2N"/>
            <route id="E_S" edges="E2TL TL2S"/>
            <route id="S_W" edges="S2TL TL2W"/>
            <route id="S_N" edges="S2TL TL2N"/>
            <route id="S_E" edges="S2TL TL2E"/>
    <vehicle id="W_E_0" type="standard_car" route="W_E" depart="60.0" departLane="random" departSpeed="10" />
    <vehicle id="N_S_1" type="standard_car" route="N_S" depart="82.0" departLane="random" departSpeed="10" />
    <vehicle id="S_N_2" type="standard_car" route="S_N" depart="86.0" departLane="random" departSpeed="10" />
    <vehicle id="S_N_3" type="standard_car" route="S_N" depart="89.0" departLane="random" departSpeed="10" />
    <vehicle id="W_E_4" type="standard_car" route="W_E" depart="110.0" departLane="random" departSpeed="10" />
    <vehicle id="E_W_5" type="standard_car" route="E_W" depart="123.0" departLane="random" departSpeed="10" />
    <vehicle id="S_N_6" type="standard_car" route="S_N" depart="124.0" departLane="random" departSpeed="10" />
    <vehicle id="W_E_7" type="standard_car" route="W_E" depart="132.0" departLane="random" departSpeed="10" />
    <vehicle id="E_W_8" type="standard_car" route="E_W" depart="151.0" departLane="random" departSpeed="10" />
    <vehicle id="S_W_9" type="standard_car" route="S_W" depart="160.0" departLane="random" departSpeed="10" />
    <vehicle id="N_W_10" type="standard_car" route="N_W" depart="161.0" departLane="random" departSpeed="10" />
    <vehicle id="E_W_11" type="standard_car" route="E_W" depart="163.0" departLane="random" departSpeed="10" />
    <vehicle id="N_S_12" type="standard_car" route="N_S" depart="171.0" departLane="random" departSpeed="10" />
    <vehicle id="N_S_13" type="standard_car" route="N_S" depart="171.0" departLane="random" departSpeed="10" />
    <vehicle id="E_S_14" type="standard_car" route="E_S" depart="171.0" departLane="random" departSpeed="10" />
    <vehicle id="S_N_15" type="standard_car" route="S_N" depart="178.0" departLane="random" departSpeed="10" />
    <vehicle id="N_S_16" type="standard_car" route="N_S" depart="185.0" departLane="random" departSpeed="10" />
    <vehicle id="E_N_17" type="standard_car" route="E_N" depart="188.0" departLane="random" departSpeed="10" />
    <vehicle id="E_W_18" type="standard_car" route="E_W" depart="189.0" departLane="random" departSpeed="10" />
    <vehicle id="S_N_19" type="standard_car" route="S_N" depart="190.0" departLane="random" departSpeed="10" />
    <vehicle id="N_S_20" type="standard_car" route="N_S" depart="190.0" departLane="random" departSpeed="10" />
    <vehicle id="E_W_21" type="standard_car" route="E_W" depart="193.0" departLane="random" departSpeed="10" />
    <vehicle id="W_E_22" type="standard_car" route="W_E" depart="196.0" departLane="random" departSpeed="10" />
    <vehicle id="N_S_23" type="standard_car" route="N_S" depart="197.0" departLane="random" departSpeed="10" />
    <vehicle id="W_E_24" type="standard_car" route="W_E" depart="202.0" departLane="random" departSpeed="10" />
    <vehicle id="E_W_25" type="standard_car" route="E_W" depart="212.0" departLane="random" departSpeed="10" />
    <vehicle id="E_W_26" type="standard_car" route="E_W" depart="214.0" departLane="random" departSpeed="10" />
    <vehicle id="W_E_27" type="standard_car" route="W_E" depart="215.0" departLane="random" departSpeed="10" />
    <vehicle id="N_S_28" type="standard_car" route="N_S" depart="217.0" departLane="random" departSpeed="10" />
    <vehicle id="S_N_29" type="standard_car" route="S_N" depart="218.0" departLane="random" departSpeed="10" />
    <vehicle id="E_N_30" type="standard_car" route="E_N" depart="222.0" departLane="random" departSpeed="10" />
    <vehicle id="E_W_31" type="standard_car" route="E_W" depart="231.0" departLane="random" departSpeed="10" />
    <vehicle id="N_S_32" type="standard_car" route="N_S" depart="234.0" departLane="random" departSpeed="10" />
    <vehicle id="S_N_33" type="standard_car" route="S_N" depart="236.0" departLane="random" departSpeed="10" />
    <vehicle id="E_W_34" type="standard_car" route="E_W" depart="242.0" departLane="random" departSpeed="10" />
    <vehicle id="N_E_35" type="standard_car" route="N_E" depart="244.0" departLane="random" departSpeed="10" />
    <vehicle id="S_N_36" type="standard_car" route="S_N" depart="244.0" departLane="random" departSpeed="10" />
    <vehicle id="S_N_37" type="standard_car" route="S_N" depart="249.0" departLane="random" departSpeed="10" />
    <vehicle id="N_W_38" type="standard_car" route="N_W" depart="250.0" departLane="random" departSpeed="10" />
    <vehicle id="E_W_39" type="standard_car" route="E_W" depart="252.0" departLane="random" departSpeed="10" />
    <vehicle id="W_E_40" type="standard_car" route="W_E" depart="252.0" departLane="random" departSpeed="10" />
    <vehicle id="N_S_41" type="standard_car" route="N_S" depart="254.0" departLane="random" departSpeed="10" />
    <vehicle id="S_W_42" type="standard_car" route="S_W" depart="255.0" departLane="random" departSpeed="10" />
    <vehicle id="W_E_43" type="standard_car" route="W_E" depart="256.0" departLane="random" departSpeed="10" />
    <vehicle id="W_E_44" type="standard_car" route="W_E" depart="262.0" departLane="random" departSpeed="10" />
    <vehicle id="E_W_45" type="standard_car" route="E_W" depart="266.0" departLane="random" departSpeed="10" />
    <vehicle id="E_S_46" type="standard_car" route="E_S" depart="272.0" departLane="random" departSpeed="10" />
    <vehicle id="W_E_47" type="standard_car" route="W_E" depart="272.0" departLane="random" departSpeed="10" />
    <vehicle id="N_S_48" type="standard_car" route="N_S" depart="273.0" departLane="random" departSpeed="10" />
    <vehicle id="N_E_49" type="standard_car" route="N_E" depart="276.0" departLane="random" departSpeed="10" />
    <vehicle id="E_W_50" type="standard_car" route="E_W" depart="277.0" departLane="random" departSpeed="10" />
    <vehicle id="N_W_51" type="standard_car" route="N_W" depart="280.0" departLane="random" departSpeed="10" />
    <vehicle id="W_E_52" type="standard_car" route="W_E" depart="283.0" departLane="random" departSpeed="10" />
    <vehicle id="N_E_53" type="standard_car" route="N_E" depart="290.0" departLane="random" departSpeed="10" />
    <vehicle id="E_W_54" type="standard_car" route="E_W" depart="290.0" departLane="random" departSpeed="10" />
    <vehicle id="S_N_55" type="standard_car" route="S_N" depart="291.0" departLane="random" departSpeed="10" />
    <vehicle id="W_N_56" type="standard_car" route="W_N" depart="302.0" departLane="random" departSpeed="10" />
    <vehicle id="E_W_57" type="standard_car" route="E_W" depart="303.0" departLane="random" departSpeed="10" />
    <vehicle id="S_N_58" type="standard_car" route="S_N" depart="304.0" departLane="random" departSpeed="10" />
    <vehicle id="E_N_59" type="standard_car" route="E_N" depart="306.0" departLane="random" departSpeed="10" />
    <vehicle id="W_S_60" type="standard_car" route="W_S" depart="306.0" departLane="random" departSpeed="10" />
    <vehicle id="S_N_61" type="standard_car" route="S_N" depart="306.0" departLane="random" departSpeed="10" />
    <vehicle id="S_W_62" type="standard_car" route="S_W" depart="314.0" departLane="random" departSpeed="10" />
    <vehicle id="W_E_63" type="standard_car" route="W_E" depart="317.0" departLane="random" departSpeed="10" />
    <vehicle id="S_N_64" type="standard_car" route="S_N" depart="321.0" departLane="random" departSpeed="10" />
    <vehicle id="S_W_65" type="standard_car" route="S_W" depart="323.0" departLane="random" departSpeed="10" />
    <vehicle id="W_E_66" type="standard_car" route="W_E" depart="324.0" departLane="random" departSpeed="10" />
    <vehicle id="S_N_67" type="standard_car" route="S_N" depart="325.0" departLane="random" departSpeed="10" />
    <vehicle id="N_S_68" type="standard_car" route="N_S" depart="326.0" departLane="random" departSpeed="10" />
    <vehicle id="E_W_69" type="standard_car" route="E_W" depart="328.0" departLane="random" departSpeed="10" />
    <vehicle id="S_N_70" type="standard_car" route="S_N" depart="328.0" departLane="random" departSpeed="10" />
    <vehicle id="N_W_71" type="standard_car" route="N_W" depart="329.0" departLane="random" departSpeed="10" />
    <vehicle id="E_W_72" type="standard_car" route="E_W" depart="331.0" departLane="random" departSpeed="10" />
    <vehicle id="E_W_73" type="standard_car" route="E_W" depart="332.0" departLane="random" departSpeed="10" />
    <vehicle id="S_N_74" type="standard_car" route="S_N" depart="332.0" departLane="random" departSpeed="10" />
    <vehicle id="N_W_75" type="standard_car" route="N_W" depart="339.0" departLane="random" departSpeed="10" />
    <vehicle id="S_N_76" type="standard_car" route="S_N" depart="345.0" departLane="random" departSpeed="10" />
    <vehicle id="E_S_77" type="standard_car" route="E_S" depart="348.0" departLane="random" departSpeed="10" />
    <vehicle id="S_N_78" type="standard_car" route="S_N" depart="351.0" departLane="random" departSpeed="10" />
    <vehicle id="S_N_79" type="standard_car" route="S_N" depart="351.0" departLane="random" departSpeed="10" />
    <vehicle id="E_N_80" type="standard_car" route="E_N" depart="355.0" departLane="random" departSpeed="10" />
    <vehicle id="W_E_81" type="standard_car" route="W_E" depart="356.0" departLane="random" departSpeed="10" />
    <vehicle id="E_W_82" type="standard_car" route="E_W" depart="361.0" departLane="random" departSpeed="10" />
    <vehicle id="E_N_83" type="standard_car" route="E_N" depart="361.0" departLane="random" departSpeed="10" />
    <vehicle id="N_S_84" type="standard_car" route="N_S" depart="367.0" departLane="random" departSpeed="10" />
    <vehicle id="W_S_85" type="standard_car" route="W_S" depart="369.0" departLane="random" departSpeed="10" />
    <vehicle id="S_E_86" type="standard_car" route="S_E" depart="371.0" departLane="random" departSpeed="10" />
    <vehicle id="E_W_87" type="standard_car" route="E_W" depart="371.0" departLane="random" departSpeed="10" />
    <vehicle id="N_S_88" type="standard_car" route="N_S" depart="372.0" departLane="random" departSpeed="10" />
    <vehicle id="S_N_89" type="standard_car" route="S_N" depart="374.0" departLane="random" departSpeed="10" />
    <vehicle id="S_N_90" type="standard_car" route="S_N" depart="375.0" departLane="random" departSpeed="10" />
    <vehicle id="W_E_91" type="standard_car" route="W_E" depart="375.0" departLane="random" departSpeed="10" />
    <vehicle id="E_W_92" type="standard_car" route="E_W" depart="378.0" departLane="random" departSpeed="10" />
    <vehicle id="S_N_93" type="standard_car" route="S_N" depart="378.0" departLane="random" departSpeed="10" />
    <vehicle id="W_S_94" type="standard_car" route="W_S" depart="379.0" departLane="random" departSpeed="10" />
    <vehicle id="W_E_95" type="standard_car" route="W_E" depart="386.0" departLane="random" departSpeed="10" />
    <vehicle id="E_N_96" type="standard_car" route="E_N" depart="389.0" departLane="random" departSpeed="10" />
    <vehicle id="S_N_97" type="standard_car" route="S_N" depart="393.0" departLane="random" departSpeed="10" />
    <vehicle id="N_S_98" type="standard_car" route="N_S" depart="393.0" departLane="random" departSpeed="10" />
    <vehicle id="W_E_99" type="standard_car" route="W_E" depart="394.0" departLane="random" departSpeed="10" />
    <vehicle id="W_E_100" type="standard_car" route="W_E" depart="395.0" departLane="random" departSpeed="10" />
    <vehicle id="E_W_101" type="standard_car" route="E_W" depart="395.0" departLane="random" departSpeed="10" />
    <vehicle id="N_S_102" type="standard_car" route="N_S" depart="409.0" departLane="random" departSpeed="10" />
    <vehicle id="S_E_103" type="standard_car" route="S_E" depart="416.0" departLane="random" departSpeed="10" />
    <vehicle id="S_W_104" type="standard_car" route="S_W" depart="419.0" departLane="random" departSpeed="10" />
    <vehicle id="W_N_105" type="standard_car" route="W_N" depart="420.0" departLane="random" departSpeed="10" />
    <vehicle id="W_S_106" type="standard_car" route="W_S" depart="433.0" departLane="random" departSpeed="10" />
    <vehicle id="W_E_107" type="standard_car" route="W_E" depart="434.0" departLane="random" departSpeed="10" />
    <vehicle id="E_W_108" type="standard_car" route="E_W" depart="434.0" departLane="random" departSpeed="10" />
    <vehicle id="N_W_109" type="standard_car" route="N_W" depart="446.0" departLane="random" departSpeed="10" />
    <vehicle id="S_N_110" type="standard_car" route="S_N" depart="450.0" departLane="random" departSpeed="10" />
    <vehicle id="N_W_111" type="standard_car" route="N_W" depart="453.0" departLane="random" departSpeed="10" />
    <vehicle id="N_S_112" type="standard_car" route="N_S" depart="454.0" departLane="random" departSpeed="10" />
    <vehicle id="W_E_113" type="standard_car" route="W_E" depart="455.0" departLane="random" departSpeed="10" />
    <vehicle id="N_S_114" type="standard_car" route="N_S" depart="456.0" departLane="random" departSpeed="10" />
    <vehicle id="N_S_115" type="standard_car" route="N_S" depart="456.0" departLane="random" departSpeed="10" />
    <vehicle id="N_S_116" type="standard_car" route="N_S" depart="456.0" departLane="random" departSpeed="10" />
    <vehicle id="S_N_117" type="standard_car" route="S_N" depart="458.0" departLane="random" departSpeed="10" />
    <vehicle id="W_N_118" type="standard_car" route="W_N" depart="459.0" departLane="random" departSpeed="10" />
    <vehicle id="S_N_119" type="standard_car" route="S_N" depart="459.0" departLane="random" departSpeed="10" />
    <vehicle id="N_S_120" type="standard_car" route="N_S" depart="463.0" departLane="random" departSpeed="10" />
    <vehicle id="N_S_121" type="standard_car" route="N_S" depart="467.0" departLane="random" departSpeed="10" />
    <vehicle id="W_E_122" type="standard_car" route="W_E" depart="477.0" departLane="random" departSpeed="10" />
    <vehicle id="W_N_123" type="standard_car" route="W_N" depart="479.0" departLane="random" departSpeed="10" />
    <vehicle id="W_E_124" type="standard_car" route="W_E" depart="481.0" departLane="random" departSpeed="10" />
    <vehicle id="S_N_125" type="standard_car" route="S_N" depart="482.0" departLane="random" departSpeed="10" />
    <vehicle id="S_N_126" type="standard_car" route="S_N" depart="484.0" departLane="random" departSpeed="10" />
    <vehicle id="E_N_127" type="standard_car" route="E_N" depart="485.0" departLane="random" departSpeed="10" />
    <vehicle id="N_W_128" type="standard_car" route="N_W" depart="486.0" departLane="random" departSpeed="10" />
    <vehicle id="W_E_129" type="standard_car" route="W_E" depart="488.0" departLane="random" departSpeed="10" />
    <vehicle id="W_E_130" type="standard_car" route="W_E" depart="489.0" departLane="random" departSpeed="10" />
    <vehicle id="S_N_131" type="standard_car" route="S_N" depart="493.0" departLane="random" departSpeed="10" />
    <vehicle id="W_E_132" type="standard_car" route="W_E" depart="495.0" departLane="random" departSpeed="10" />
    <vehicle id="E_W_133" type="standard_car" route="E_W" depart="497.0" departLane="random" departSpeed="10" />
    <vehicle id="W_E_134" type="standard_car" route="W_E" depart="499.0" departLane="random" departSpeed="10" />
    <vehicle id="E_W_135" type="standard_car" route="E_W" depart="499.0" departLane="random" departSpeed="10" />
    <vehicle id="W_E_136" type="standard_car" route="W_E" depart="500.0" departLane="random" departSpeed="10" />
    <vehicle id="N_S_137" type="standard_car" route="N_S" depart="501.0" departLane="random" departSpeed="10" />
    <vehicle id="S_N_138" type="standard_car" route="S_N" depart="504.0" departLane="random" departSpeed="10" />
    <vehicle id="E_W_139" type="standard_car" route="E_W" depart="505.0" departLane="random" departSpeed="10" />
    <vehicle id="S_W_140" type="standard_car" route="S_W" depart="509.0" departLane="random" departSpeed="10" />
    <vehicle id="S_N_141" type="standard_car" route="S_N" depart="514.0" departLane="random" departSpeed="10" />
    <vehicle id="W_S_142" type="standard_car" route="W_S" depart="516.0" departLane="random" departSpeed="10" />
    <vehicle id="W_E_143" type="standard_car" route="W_E" depart="517.0" departLane="random" departSpeed="10" />
    <vehicle id="S_N_144" type="standard_car" route="S_N" depart="521.0" departLane="random" departSpeed="10" />
    <vehicle id="E_N_145" type="standard_car" route="E_N" depart="523.0" departLane="random" departSpeed="10" />
    <vehicle id="N_S_146" type="standard_car" route="N_S" depart="523.0" departLane="random" departSpeed="10" />
    <vehicle id="S_N_147" type="standard_car" route="S_N" depart="523.0" departLane="random" departSpeed="10" />
    <vehicle id="N_S_148" type="standard_car" route="N_S" depart="527.0" departLane="random" departSpeed="10" />
    <vehicle id="N_S_149" type="standard_car" route="N_S" depart="529.0" departLane="random" departSpeed="10" />
    <vehicle id="N_S_150" type="standard_car" route="N_S" depart="530.0" departLane="random" departSpeed="10" />
    <vehicle id="E_W_151" type="standard_car" route="E_W" depart="533.0" departLane="random" departSpeed="10" />
    <vehicle id="W_E_152" type="standard_car" route="W_E" depart="534.0" departLane="random" departSpeed="10" />
    <vehicle id="E_W_153" type="standard_car" route="E_W" depart="540.0" departLane="random" departSpeed="10" />
    <vehicle id="S_N_154" type="standard_car" route="S_N" depart="540.0" departLane="random" departSpeed="10" />
    <vehicle id="N_S_155" type="standard_car" route="N_S" depart="542.0" departLane="random" departSpeed="10" />
    <vehicle id="S_N_156" type="standard_car" route="S_N" depart="543.0" departLane="random" departSpeed="10" />
    <vehicle id="W_N_157" type="standard_car" route="W_N" depart="544.0" departLane="random" departSpeed="10" />
    <vehicle id="S_N_158" type="standard_car" route="S_N" depart="544.0" departLane="random" departSpeed="10" />
    <vehicle id="W_S_159" type="standard_car" route="W_S" depart="552.0" departLane="random" departSpeed="10" />
    <vehicle id="N_S_160" type="standard_car" route="N_S" depart="552.0" departLane="random" departSpeed="10" />
    <vehicle id="N_S_161" type="standard_car" route="N_S" depart="556.0" departLane="random" departSpeed="10" />
    <vehicle id="E_W_162" type="standard_car" route="E_W" depart="556.0" departLane="random" departSpeed="10" />
    <vehicle id="E_W_163" type="standard_car" route="E_W" depart="557.0" departLane="random" departSpeed="10" />
    <vehicle id="S_W_164" type="standard_car" route="S_W" depart="559.0" departLane="random" departSpeed="10" />
    <vehicle id="W_E_165" type="standard_car" route="W_E" depart="563.0" departLane="random" departSpeed="10" />
    <vehicle id="W_E_166" type="standard_car" route="W_E" depart="563.0" departLane="random" departSpeed="10" />
    <vehicle id="N_S_167" type="standard_car" route="N_S" depart="564.0" departLane="random" departSpeed="10" />
    <vehicle id="E_W_168" type="standard_car" route="E_W" depart="565.0" departLane="random" departSpeed="10" />
    <vehicle id="S_N_169" type="standard_car" route="S_N" depart="571.0" departLane="random" departSpeed="10" />
    <vehicle id="E_N_170" type="standard_car" route="E_N" depart="573.0" departLane="random" departSpeed="10" />
    <vehicle id="N_S_171" type="standard_car" route="N_S" depart="574.0" departLane="random" departSpeed="10" />
    <vehicle id="N_W_172" type="standard_car" route="N_W" depart="576.0" departLane="random" departSpeed="10" />
    <vehicle id="S_N_173" type="standard_car" route="S_N" depart="577.0" departLane="random" departSpeed="10" />
    <vehicle id="S_N_174" type="standard_car" route="S_N" depart="581.0" departLane="random" departSpeed="10" />
    <vehicle id="W_E_175" type="standard_car" route="W_E" depart="582.0" departLane="random" departSpeed="10" />
    <vehicle id="N_S_176" type="standard_car" route="N_S" depart="582.0" departLane="random" departSpeed="10" />
    <vehicle id="S_N_177" type="standard_car" route="S_N" depart="589.0" departLane="random" departSpeed="10" />
    <vehicle id="N_S_178" type="standard_car" route="N_S" depart="590.0" departLane="random" departSpeed="10" />
    <vehicle id="S_N_179" type="standard_car" route="S_N" depart="590.0" departLane="random" departSpeed="10" />
    <vehicle id="N_S_180" type="standard_car" route="N_S" depart="593.0" departLane="random" departSpeed="10" />
    <vehicle id="N_S_181" type="standard_car" route="N_S" depart="594.0" departLane="random" departSpeed="10" />
    <vehicle id="S_N_182" type="standard_car" route="S_N" depart="595.0" departLane="random" departSpeed="10" />
    <vehicle id="N_S_183" type="standard_car" route="N_S" depart="596.0" departLane="random" departSpeed="10" />
    <vehicle id="N_S_184" type="standard_car" route="N_S" depart="597.0" departLane="random" departSpeed="10" />
    <vehicle id="W_E_185" type="standard_car" route="W_E" depart="601.0" departLane="random" departSpeed="10" />
    <vehicle id="W_E_186" type="standard_car" route="W_E" depart="601.0" departLane="random" departSpeed="10" />
    <vehicle id="W_E_187" type="standard_car" route="W_E" depart="601.0" departLane="random" departSpeed="10" />
    <vehicle id="W_E_188" type="standard_car" route="W_E" depart="602.0" departLane="random" departSpeed="10" />
    <vehicle id="W_E_189" type="standard_car" route="W_E" depart="603.0" departLane="random" departSpeed="10" />
    <vehicle id="N_S_190" type="standard_car" route="N_S" depart="605.0" departLane="random" departSpeed="10" />
    <vehicle id="N_S_191" type="standard_car" route="N_S" depart="606.0" departLane="random" departSpeed="10" />
    <vehicle id="E_W_192" type="standard_car" route="E_W" depart="606.0" departLane="random" departSpeed="10" />
    <vehicle id="W_N_193" type="standard_car" route="W_N" depart="607.0" departLane="random" departSpeed="10" />
    <vehicle id="S_N_194" type="standard_car" route="S_N" depart="609.0" departLane="random" departSpeed="10" />
    <vehicle id="W_N_195" type="standard_car" route="W_N" depart="612.0" departLane="random" departSpeed="10" />
    <vehicle id="N_S_196" type="standard_car" route="N_S" depart="614.0" departLane="random" departSpeed="10" />
    <vehicle id="S_N_197" type="standard_car" route="S_N" depart="615.0" departLane="random" departSpeed="10" />
    <vehicle id="N_W_198" type="standard_car" route="N_W" depart="617.0" departLane="random" departSpeed="10" />
    <vehicle id="E_W_199" type="standard_car" route="E_W" depart="618.0" departLane="random" departSpeed="10" />
    <vehicle id="W_S_200" type="standard_car" route="W_S" depart="618.0" departLane="random" departSpeed="10" />
    <vehicle id="N_W_201" type="standard_car" route="N_W" depart="619.0" departLane="random" departSpeed="10" />
    <vehicle id="E_W_202" type="standard_car" route="E_W" depart="622.0" departLane="random" departSpeed="10" />
    <vehicle id="N_W_203" type="standard_car" route="N_W" depart="622.0" departLane="random" departSpeed="10" />
    <vehicle id="W_E_204" type="standard_car" route="W_E" depart="624.0" departLane="random" departSpeed="10" />
    <vehicle id="S_N_205" type="standard_car" route="S_N" depart="625.0" departLane="random" departSpeed="10" />
    <vehicle id="E_W_206" type="standard_car" route="E_W" depart="629.0" departLane="random" departSpeed="10" />
    <vehicle id="S_N_207" type="standard_car" route="S_N" depart="629.0" departLane="random" departSpeed="10" />
    <vehicle id="N_S_208" type="standard_car" route="N_S" depart="630.0" departLane="random" departSpeed="10" />
    <vehicle id="N_S_209" type="standard_car" route="N_S" depart="630.0" departLane="random" departSpeed="10" />
    <vehicle id="W_E_210" type="standard_car" route="W_E" depart="633.0" departLane="random" departSpeed="10" />
    <vehicle id="S_N_211" type="standard_car" route="S_N" depart="634.0" departLane="random" departSpeed="10" />
    <vehicle id="W_E_212" type="standard_car" route="W_E" depart="635.0" departLane="random" departSpeed="10" />
    <vehicle id="S_N_213" type="standard_car" route="S_N" depart="635.0" departLane="random" departSpeed="10" />
    <vehicle id="S_N_214" type="standard_car" route="S_N" depart="636.0" departLane="random" departSpeed="10" />
    <vehicle id="E_S_215" type="standard_car" route="E_S" depart="639.0" departLane="random" departSpeed="10" />
    <vehicle id="N_S_216" type="standard_car" route="N_S" depart="642.0" departLane="random" departSpeed="10" />
    <vehicle id="N_S_217" type="standard_car" route="N_S" depart="643.0" departLane="random" departSpeed="10" />
    <vehicle id="N_W_218" type="standard_car" route="N_W" depart="647.0" departLane="random" departSpeed="10" />
    <vehicle id="W_S_219" type="standard_car" route="W_S" depart="649.0" departLane="random" departSpeed="10" />
    <vehicle id="E_W_220" type="standard_car" route="E_W" depart="658.0" departLane="random" departSpeed="10" />
    <vehicle id="E_N_221" type="standard_car" route="E_N" depart="661.0" departLane="random" departSpeed="10" />
    <vehicle id="E_W_222" type="standard_car" route="E_W" depart="662.0" departLane="random" departSpeed="10" />
    <vehicle id="W_E_223" type="standard_car" route="W_E" depart="662.0" departLane="random" departSpeed="10" />
    <vehicle id="W_E_224" type="standard_car" route="W_E" depart="675.0" departLane="random" departSpeed="10" />
    <vehicle id="W_S_225" type="standard_car" route="W_S" depart="675.0" departLane="random" departSpeed="10" />
    <vehicle id="W_E_226" type="standard_car" route="W_E" depart="675.0" departLane="random" departSpeed="10" />
    <vehicle id="N_S_227" type="standard_car" route="N_S" depart="679.0" departLane="random" departSpeed="10" />
    <vehicle id="W_E_228" type="standard_car" route="W_E" depart="679.0" departLane="random" departSpeed="10" />
    <vehicle id="N_W_229" type="standard_car" route="N_W" depart="680.0" departLane="random" departSpeed="10" />
    <vehicle id="W_E_230" type="standard_car" route="W_E" depart="680.0" departLane="random" departSpeed="10" />
    <vehicle id="N_S_231" type="standard_car" route="N_S" depart="680.0" departLane="random" departSpeed="10" />
    <vehicle id="N_E_232" type="standard_car" route="N_E" depart="680.0" departLane="random" departSpeed="10" />
    <vehicle id="N_S_233" type="standard_car" route="N_S" depart="681.0" departLane="random" departSpeed="10" />
    <vehicle id="N_W_234" type="standard_car" route="N_W" depart="682.0" departLane="random" departSpeed="10" />
    <vehicle id="W_E_235" type="standard_car" route="W_E" depart="683.0" departLane="random" departSpeed="10" />
    <vehicle id="N_S_236" type="standard_car" route="N_S" depart="686.0" departLane="random" departSpeed="10" />
    <vehicle id="S_N_237" type="standard_car" route="S_N" depart="688.0" departLane="random" departSpeed="10" />
    <vehicle id="W_E_238" type="standard_car" route="W_E" depart="691.0" departLane="random" departSpeed="10" />
    <vehicle id="E_W_239" type="standard_car" route="E_W" depart="691.0" departLane="random" departSpeed="10" />
    <vehicle id="E_W_240" type="standard_car" route="E_W" depart="691.0" departLane="random" departSpeed="10" />
    <vehicle id="W_S_241" type="standard_car" route="W_S" depart="691.0" departLane="random" departSpeed="10" />
    <vehicle id="S_N_242" type="standard_car" route="S_N" depart="692.0" departLane="random" departSpeed="10" />
    <vehicle id="E_W_243" type="standard_car" route="E_W" depart="693.0" departLane="random" departSpeed="10" />
    <vehicle id="S_N_244" type="standard_car" route="S_N" depart="694.0" departLane="random" departSpeed="10" />
    <vehicle id="E_W_245" type="standard_car" route="E_W" depart="696.0" departLane="random" departSpeed="10" />
    <vehicle id="E_W_246" type="standard_car" route="E_W" depart="697.0" departLane="random" departSpeed="10" />
    <vehicle id="N_E_247" type="standard_car" route="N_E" depart="697.0" departLane="random" departSpeed="10" />
    <vehicle id="S_N_248" type="standard_car" route="S_N" depart="698.0" departLane="random" departSpeed="10" />
    <vehicle id="S_N_249" type="standard_car" route="S_N" depart="699.0" departLane="random" departSpeed="10" />
    <vehicle id="E_W_250" type="standard_car" route="E_W" depart="700.0" departLane="random" departSpeed="10" />
    <vehicle id="N_S_251" type="standard_car" route="N_S" depart="702.0" departLane="random" departSpeed="10" />
    <vehicle id="S_N_252" type="standard_car" route="S_N" depart="704.0" departLane="random" departSpeed="10" />
    <vehicle id="W_N_253" type="standard_car" route="W_N" depart="704.0" departLane="random" departSpeed="10" />
    <vehicle id="E_W_254" type="standard_car" route="E_W" depart="705.0" departLane="random" departSpeed="10" />
    <vehicle id="W_E_255" type="standard_car" route="W_E" depart="705.0" departLane="random" departSpeed="10" />
    <vehicle id="N_S_256" type="standard_car" route="N_S" depart="705.0" departLane="random" departSpeed="10" />
    <vehicle id="W_E_257" type="standard_car" route="W_E" depart="706.0" departLane="random" departSpeed="10" />
    <vehicle id="N_S_258" type="standard_car" route="N_S" depart="706.0" departLane="random" departSpeed="10" />
    <vehicle id="E_S_259" type="standard_car" route="E_S" depart="706.0" departLane="random" departSpeed="10" />