<routes>
            <vType accel="1.0" decel="4.5" id="standard_car" length="5.0" minGap="2.5" maxSpeed="25" sigma="0.5" />

            <route id="W_N" edges="W2TL TL2N"/>
            <route id="W_E" edges="W2TL TL2E"/>
            <route id="W_S" edges="W2TL TL2S"/>
            <route id="N_W" edges="N2TL TL2W"/>
            <route id="N_E" edges="N2TL TL2E"/>
            <route id="N_S" edges="N2TL TL2S"/>
            <route id="E_W" edges="E2TL TL2W"/>
            <route id="E_N" edges="E2TL TL2N"/>
            <route id="E_S" edges="E2TL TL2S"/>
            <route id="S_W" edges="S2TL TL2W"/>
            <route id="S_N" edges="S2TL TL2N"/>
            <route id="S_E" edges="S2TL TL2E"/>
    <vehicle id="S_W_0" type="standard_car" route="S_W" depart="9.0" departLane="random" departSpeed="10" />
    <vehicle id="E_W_1" type="standard_car" route="E_W" depart="39.0" departLane="random" departSpeed="10" />
    <vehicle id="W_E_2" type="standard_car" route="W_E" depart="55.0" departLane="random" departSpeed="10" />
    <vehicle id="S_N_3" type="standard_car" route="S_N" depart="102.0" departLane="random" departSpeed="10" />
    <vehicle id="N_S_4" type="standard_car" route="N_S" depart="110.0" departLane="random" departSpeed="10" />
    <vehicle id="W_E_5" type="standard_car" route="W_E" depart="159.0" departLane="random" departSpeed="10" />
    <vehicle id="N_W_6" type="standard_car" route="N_W" depart="165.0" departLane="random" departSpeed="10" />
    <vehicle id="W_E_7" type="standard_car" route="W_E" depart="168.0" departLane="random" departSpeed="10" />
    <vehicle id="E_S_8" type="standard_car" route="E_S" depart="181.0" departLane="random" departSpeed="10" />
    <vehicle id="E_W_9" type="standard_car" route="E_W" depart="183.0" departLane="random" departSpeed="10" />
    <vehicle id="S_N_10" type="standard_car" route="S_N" depart="184.0" departLane="random" departSpeed="10" />
    <vehicle id="N_S_11" type="standard_car" route="N_S" depart="196.0" departLane="random" departSpeed="10" />
    <vehicle id="W_E_12" type="standard_car" route="W_E" depart="215.0" departLane="random" departSpeed="10" />
    <vehicle id="E_W_13" type="standard_car" route="E_W" depart="217.0" departLane="random" departSpeed="10" />
    <vehicle id="N_E_14" type="standard_car" route="N_E" depart="226.0" departLane="random" departSpeed="10" />
    <vehicle id="W_E_15" type="standard_car" route="W_E" depart="234.0" departLane="random" departSpeed="10" />
    <vehicle id="E_W_16" type="standard_car" route="E_W" depart="244.0" departLane="random" departSpeed="10" />
    <vehicle id="N_S_17" type="standard_car" route="N_S" depart="244.0" departLane="random" departSpeed="10" />
    <vehicle id="W_E_18" type="standard_car" route="W_E" depart="246.0" departLane="random" departSpeed="10" />
    <vehicle id="E_W_19" type="standard_car" route="E_W" depart="246.0" departLane="random" departSpeed="10" />
    <vehicle id="W_E_20" type="standard_car" route="W_E" depart="248.0" departLane="random" departSpeed="10" />
    <vehicle id="N_S_21" type="standard_car" route="N_S" depart="265.0" departLane="random" departSpeed="10" />
    <vehicle id="S_N_22" type="standard_car" route="S_N" depart="269.0" departLane="random" departSpeed="10" />
    <vehicle id="N_S_23" type="standard_car" route="N_S" depart="278.0" departLane="random" departSpeed="10" />
    <vehicle id="N_W_24" type="standard_car" route="N_W" depart="287.0" departLane="random" departSpeed="10" />
    <vehicle id="W_E_25" type="standard_car" route="W_E" depart="287.0" departLane="random" departSpeed="10" />
    <vehicle id="N_S_26" type="standard_car" route="N_S" depart="290.0" departLane="random" departSpeed="10" />
    <vehicle id="S_N_27" type="standard_car" route="S_N" depart="294.0" departLane="random" departSpeed="10" />
    <vehicle id="S_N_28" type="standard_car" route="S_N" depart="298.0" departLane="random" departSpeed="10" />
    <vehicle id="S_N_29" type="standard_car" route="S_N" depart="300.0" departLane="random" departSpeed="10" />
    <vehicle id="E_W_30" type="standard_car" route="E_W" depart="305.0" departLane="random" departSpeed="10" />
    <vehicle id="W_E_31" type="standard_car" route="W_E" depart="310.0" departLane="random" departSpeed="10" />
    <vehicle id="N_S_32" type="standard_car" route="N_S" depart="314.0" departLane="random" departSpeed="10" />
    <vehicle id="E_W_33" type="standard_car" route="E_W" depart="314.0" departLane="random" departSpeed="10" />
    <vehicle id="S_N_34" type="standard_car" route="S_N" depart="317.0" departLane="random" departSpeed="10" />
    <vehicle id="E_W_35" type="standard_car" route="E_W" depart="335.0" departLane="random" departSpeed="10" />
    <vehicle id="S_N_36" type="standard_car" route="S_N" depart="352.0" departLane="random" departSpeed="10" />
    <vehicle id="W_N_37" type="standard_car" route="W_N" depart="357.0" departLane="random" departSpeed="10" />
    <vehicle id="S_N_38" type="standard_car" route="S_N" depart="359.0" departLane="random" departSpeed="10" />
    <vehicle id="W_E_39" type="standard_car" route="W_E" depart="362.0" departLane="random" departSpeed="10" />
    <vehicle id="W_S_40" type="standard_car" route="W_S" depart="363.0" departLane="random" departSpeed="10" />
    <vehicle id="S_N_41" type="standard_car" route="S_N" depart="363.0" departLane="random" departSpeed="10" />
    <vehicle id="N_S_42" type="standard_car" route="N_S" depart="374.0" departLane="random" departSpeed="10" />
    <vehicle id="E_S_43" type="standard_car" route="E_S" depart="375.0" departLane="random" departSpeed="10" />
    <vehicle id="N_W_44" type="standard_car" route="N_W" depart="386.0" departLane="random" departSpeed="10" />
    <vehicle id="S_N_45" type="standard_car" route="S_N" depart="388.0" departLane="random" departSpeed="10" />
    <vehicle id="W_N_46" type="standard_car" route="W_N" depart="389.0" departLane="random" departSpeed="10" />
    <vehicle id="N_W_47" type="standard_car" route="N_W" depart="393.0" departLane="random" departSpeed="10" />
    <vehicle id="E_S_48" type="standard_car" route="E_S" depart="399.0" departLane="random" departSpeed="10" />
    <vehicle id="S_N_49" type="standard_car" route="S_N" depart="399.0" departLane="random" departSpeed="10" />
    <vehicle id="N_E_50" type="standard_car" route="N_E" depart="400.0" departLane="random" departSpeed="10" />
    <vehicle id="N_W_51" type="standard_car" route="N_W" depart="400.0" departLane="random" departSpeed="10" />
    <vehicle id="N_E_52" type="standard_car" route="N_E" depart="401.0" departLane="random" departSpeed="10" />
    <vehicle id="W_S_53" type="standard_car" route="W_S" depart="420.0" departLane="random" departSpeed="10" />
    <vehicle id="E_W_54" type="standard_car" route="E_W" depart="422.0" departLane="random" departSpeed="10" />
    <vehicle id="N_E_55" type="standard_car" route="N_E" depart="424.0" departLane="random" departSpeed="10" />
    <vehicle id="W_E_56" type="standard_car" route="W_E" depart="427.0" departLane="random" departSpeed="10" />
    <vehicle id="S_N_57" type="standard_car" route="S_N" depart="430.0" departLane="random" departSpeed="10" />
    <vehicle id="W_S_58" type="standard_car" route="W_S" depart="433.0" departLane="random" departSpeed="10" />
    <vehicle id="E_W_59" type="standard_car" route="E_W" depart="438.0" departLane="random" departSpeed="10" />
    <vehicle id="S_E_60" type="standard_car" route="S_E" depart="439.0" departLane="random" departSpeed="10" />
    <vehicle id="E_W_61" type="standard_car" route="E_W" depart="448.0" departLane="random" departSpeed="10" />
    <vehicle id="W_E_62" type="standard_car" route="W_E" depart="455.0" departLane="random" departSpeed="10" />
    <vehicle id="W_N_63" type="standard_car" route="W_N" depart="456.0" departLane="random" departSpeed="10" />
    <vehicle id="W_E_64" type="standard_car" route="W_E" depart="460.0" departLane="random" departSpeed="10" />
    <vehicle id="E_N_65" type="standard_car" route="E_N" depart="461.0" departLane="random" departSpeed="10" />
    <vehicle id="S_N_66" type="standard_car" route="S_N" depart="465.0" departLane="random" departSpeed="10" />
    <vehicle id="W_N_67" type="standard_car" route="W_N" depart="465.0" departLane="random" departSpeed="10" />
    <vehicle id="E_W_68" type="standard_car" route="E_W" depart="469.0" departLane="random" departSpeed="10" />
    <vehicle id="N_S_69" type="standard_car" route="N_S" depart="471.0" departLane="random" departSpeed="10" />
    <vehicle id="N_S_70" type="standard_car" route="N_S" depart="471.0" departLane="random" departSpeed="10" />
    <vehicle id="N_S_71" type="standard_car" route="N_S" depart="476.0" departLane="random" departSpeed="10" />
    <vehicle id="N_E_72" type="standard_car" route="N_E" depart="480.0" departLane="random" departSpeed="10" />
    <vehicle id="N_S_73" type="standard_car" route="N_S" depart="480.0" departLane="random" departSpeed="10" />
    <vehicle id="S_N_74" type="standard_car" route="S_N" depart="485.0" departLane="random" departSpeed="10" />
    <vehicle id="S_N_75" type="standard_car" route="S_N" depart="491.0" departLane="random" departSpeed="10" />
    <vehicle id="N_E_76" type="standard_car" route="N_E" depart="496.0" departLane="random" departSpeed="10" />
    <vehicle id="S_N_77" type="standard_car" route="S_N" depart="496.0" departLane="random" departSpeed="10" />
    <vehicle id="N_S_78" type="standard_car" route="N_S" depart="498.0" departLane="random" departSpeed="10" />
    <vehicle id="E_N_79" type="standard_car" route="E_N" depart="499.0" departLane="random" departSpeed="10" />
    <vehicle id="S_N_80" type="standard_car" route="S_N" depart="502.0" departLane="random" departSpeed="10" />
    <vehicle id="S_W_81" type="standard_car" route="S_W" depart="503.0" departLane="random" departSpeed="10" />
    <vehicle id="W_N_82" type="standard_car" route="W_N" depart="504.0" departLane="random" departSpeed="10" />
    <vehicle id="N_S_83" type="standard_car" route="N_S" depart="507.0" departLane="random" departSpeed="10" />
    <vehicle id="N_S_84" type="standard_car" route="N_S" depart="527.0" departLane="random" departSpeed="10" />
    <vehicle id="W_E_85" type="standard_car" route="W_E" depart="527.0" departLane="random" departSpeed="10" />
    <vehicle id="E_W_86" type="standard_car" route="E_W" depart="530.0" departLane="random" departSpeed="10" />
    <vehicle id="E_W_87" type="standard_car" route="E_W" depart="531.0" departLane="random" departSpeed="10" />
    <vehicle id="W_S_88" type="standard_car" route="W_S" depart="532.0" departLane="random" departSpeed="10" />
    <vehicle id="E_W_89" type="standard_car" route="E_W" depart="534.0" departLane="random" departSpeed="10" />
    <vehicle id="E_S_90" type="standard_car" route="E_S" depart="534.0" departLane="random" departSpeed="10" />
    <vehicle id="N_S_91" type="standard_car" route="N_S" depart="536.0" departLane="random" departSpeed="10" />
    <vehicle id="N_S_92" type="standard_car" route="N_S" depart="538.0" departLane="random" departSpeed="10" />
    <vehicle id="E_S_93" type="standard_car" route="E_S" depart="539.0" departLane="random" departSpeed="10" />
    <vehicle id="S_N_94" type="standard_car" route="S_N" depart="539.0" departLane="random" departSpeed="10" />
    <vehicle id="W_E_95" type="standard_car" route="W_E" depart="539.0" departLane="random" departSpeed="10" />
    <vehicle id="W_N_96" type="standard_car" route="W_N" depart="539.0" departLane="random" departSpeed="10" />
    <vehicle id="E_W_97" type="standard_car" route="E_W" depart="555.0" departLane="random" departSpeed="10" />
    <vehicle id="E_W_98" type="standard_car" route="E_W" depart="557.0" departLane="random" departSpeed="10" />
    <vehicle id="E_W_99" type="standard_car" route="E_W" depart="558.0" departLane="random" departSpeed="10" />
    <vehicle id="S_N_100" type="standard_car" route="S_N" depart="558.0" departLane="random" departSpeed="10" />
    <vehicle id="W_N_101" type="standard_car" route="W_N" depart="560.0" departLane="random" departSpeed="10" />
    <vehicle id="N_S_102" type="standard_car" route="N_S" depart="561.0" departLane="random" departSpeed="10" />
    <vehicle id="E_S_103" type="standard_car" route="E_S" depart="561.0" departLane="random" departSpeed="10" />
    <vehicle id="W_N_104" type="standard_car" route="W_N" depart="563.0" departLane="random" departSpeed="10" />
    <vehicle id="W_E_105" type="standard_car" route="W_E" depart="564.0" departLane="random" departSpeed="10" />
    <vehicle id="S_N_106" type="standard_car" route="S_N" depart="565.0" departLane="random" departSpeed="10" />
    <vehicle id="E_W_107" type="standard_car" route="E_W" depart="566.0" departLane="random" departSpeed="10" />
    <vehicle id="S_N_108" type="standard_car" route="S_N" depart="570.0" departLane="random" departSpeed="10" />
    <vehicle id="W_E_109" type="standard_car" route="W_E" depart="582.0" departLane="random" departSpeed="10" />
    <vehicle id="E_W_110" type="standard_car" route="E_W" depart="587.0" departLane="random" departSpeed="10" />
    <vehicle id="W_E_111" type="standard_car" route="W_E" depart="592.0" departLane="random" departSpeed="10" />
    <vehicle id="W_E_112" type="standard_car" route="W_E" depart="592.0" departLane="random" departSpeed="10" />
    <vehicle id="N_E_113" type="standard_car" route="N_E" depart="594.0" departLane="random" departSpeed="10" />
    <vehicle id="E_N_114" type="standard_car" route="E_N" depart="605.0" departLane="random" departSpeed="10" />
    <vehicle id="S_W_115" type="standard_car" route="S_W" depart="615.0" departLane="random" departSpeed="10" />
    <vehicle id="W_S_116" type="standard_car" route="W_S" depart="615.0" departLane="random" departSpeed="10" />
    <vehicle id="S_W_117" type="standard_car" route="S_W" depart="618.0" departLane="random" departSpeed="10" />
    <vehicle id="S_E_118" type="standard_car" route="S_E" depart="620.0" departLane="random" departSpeed="10" />
    <vehicle id="W_E_119" type="standard_car" route="W_E" depart="621.0" departLane="random" departSpeed="10" />
    <vehicle id="E_S_120" type="standard_car" route="E_S" depart="622.0" departLane="random" departSpeed="10" />
    <vehicle id="E_W_121" type="standard_car" route="E_W" depart="624.0" departLane="random" departSpeed="10" />
    <vehicle id="S_E_122" type="standard_car" route="S_E" depart="629.0" departLane="random" departSpeed="10" />
    <vehicle id="S_N_123" type="standard_car" route="S_N" depart="638.0" departLane="random" departSpeed="10" />
    <vehicle id="N_S_124" type="standard_car" route="N_S" depart="639.0" departLane="random" departSpeed="10" />
    <vehicle id="W_E_125" type="standard_car" route="W_E" depart="643.0" departLane="random" departSpeed="10" />
    <vehicle id="W_E_126" type="standard_car" route="W_E" depart="646.0" departLane="random" departSpeed="10" />
    <vehicle id="E_W_127" type="standard_car" route="E_W" depart="648.0" departLane="random" departSpeed="10" />
    <vehicle id="N_S_128" type="standard_car" route="N_S" depart="652.0" departLane="random" departSpeed="10" />
    <vehicle id="W_E_129" type="standard_car" route="W_E" depart="653.0" departLane="random" departSpeed="10" />
    <vehicle id="S_W_130" type="standard_car" route="S_W" depart="655.0" departLane="random" departSpeed="10" />
    <vehicle id="S_N_131" type="standard_car" route="S_N" depart="657.0" departLane="random" departSpeed="10" />
    <vehicle id="S_N_132" type="standard_car" route="S_N" depart="657.0" departLane="random" departSpeed="10" />
    <vehicle id="S_E_133" type="standard_car" route="S_E" depart="661.0" departLane="random" departSpeed="10" />
    <vehicle id="S_N_134" type="standard_car" route="S_N" depart="664.0" departLane="random" departSpeed="10" />
    <vehicle id="N_S_135" type="standard_car" route="N_S" depart="667.0" departLane="random" departSpeed="10" />
    <vehicle id="E_W_136" type="standard_car" route="E_W" depart="669.0" departLane="random" departSpeed="10" />
    <vehicle id="E_W_137" type="standard_car" route="E_W" depart="670.0" departLane="random" departSpeed="10" />
    <vehicle id="S_N_138" type="standard_car" route="S_N" depart="671.0" departLane="random" departSpeed="10" />
    <vehicle id="S_N_139" type="standard_car" route="S_N" depart="673.0" departLane="random" departSpeed="10" />
    <vehicle id="W_S_140" type="standard_car" route="W_S" depart="674.0" departLane="random" departSpeed="10" />
    <vehicle id="S_N_141" type="standard_car" route="S_N" depart="675.0" departLane="random" departSpeed="10" />
    <vehicle id="E_W_142" type="standard_car" route="E_W" depart="676.0" departLane="random" departSpeed="10" />
    <vehicle id="S_W_143" type="standard_car" route="S_W" depart="677.0" departLane="random" departSpeed="10" />
    <vehicle id="E_W_144" type="standard_car" route="E_W" depart="682.0" departLane="random" departSpeed="10" />
    <vehicle id="N_S_145" type="standard_car" route="N_S" depart="683.0" departLane="random" departSpeed="10" />
    <vehicle id="W_N_146" type="standard_car" route="W_N" depart="684.0" departLane="random" departSpeed="10" />
    <vehicle id="S_N_147" type="standard_car" route="S_N" depart="684.0" departLane="random" departSpeed="10" />
    <vehicle id="E_W_148" type="standard_car" route="E_W" depart="687.0" departLane="random" departSpeed="10" />
    <vehicle id="S_N_149" type="standard_car" route="S_N" depart="691.0" departLane="random" departSpeed="10" />
    <vehicle id="S_N_150" type="standard_car" route="S_N" depart="693.0" departLane="random" departSpeed="10" />
    <vehicle id="S_N_151" type="standard_car" route="S_N" depart="693.0" departLane="random" departSpeed="10" />
    <vehicle id="S_N_152" type="standard_car" route="S_N" depart="693.0" departLane="random" departSpeed="10" />
    <vehicle id="N_S_153" type="standard_car" route="N_S" depart="693.0" departLane="random" departSpeed="10" />
    <vehicle id="W_N_154" type="standard_car" route="W_N" depart="694.0" departLane="random" departSpeed="10" />
    <vehicle id="N_W_155" type="standard_car" route="N_W" depart="694.0" departLane="random" departSpeed="10" />
    <vehicle id="N_S_156" type="standard_car" route="N_S" depart="696.0" departLane="random" departSpeed="10" />
    <vehicle id="E_W_157" type="standard_car" route="E_W" depart="697.0" departLane="random" departSpeed="10" />
    <vehicle id="E_W_158" type="standard_car" route="E_W" depart="697.0" departLane="random" departSpeed="10" />
    <vehicle id="S_N_159" type="standard_car" route="S_N" depart="700.0" departLane="random" departSpeed="10" />
    <vehicle id="S_N_160" type="standard_car" route="S_N" depart="706.0" departLane="random" departSpeed="10" />
    <vehicle id="E_W_161" type="standard_car" route="E_W" depart="707.0" departLane="random" departSpeed="10" />
    <vehicle id="E_W_162" type="standard_car" route="E_W" depart="708.0" departLane="random" departSpeed="10" />
    <vehicle id="E_W_163" type="standard_car" route="E_W" depart="711.0" departLane="random" departSpeed="10" />
    <vehicle id="W_S_164" type="standard_car" route="W_S" depart="712.0" departLane="random" departSpeed="10" />
    <vehicle id="W_E_165" type="standard_car" route="W_E" depart="715.0" departLane="random" departSpeed="10" />
    <vehicle id="W_S_166" type="standard_car" route="W_S" depart="715.0" departLane="random" departSpeed="10" />
    <vehicle id="N_E_167" type="standard_car" route="N_E" depart="717.0" departLane="random" departSpeed="10" />
    <vehicle id="E_N_168" type="standard_car" route="E_N" depart="717.0" departLane="random" departSpeed="10" />
    <vehicle id="S_E_169" type="standard_car" route="S_E" depart="718.0" departLane="random" departSpeed="10" />
    <vehicle id="W_E_170" type="standard_car" route="W_E" depart="720.0" departLane="random" departSpeed="10" />
    <vehicle id="W_E_171" type="standard_car" route="W_E" depart="723.0" departLane="random" departSpeed="10" />
    <vehicle id="S_N_172" type="standard_car" route="S_N" depart="723.0" departLane="random" departSpeed="10" />
    <vehicle id="S_N_173" type="standard_car" route="S_N" depart="725.0" departLane="random" departSpeed="10" />
    <vehicle id="N_E_174" type="standard_car" route="N_E" depart="727.0" departLane="random" departSpeed="10" />
    <vehicle id="N_S_175" type="standard_car" route="N_S" depart="727.0" departLane="random" departSpeed="10" />
    <vehicle id="W_S_176" type="standard_car" route="W_S" depart="730.0" departLane="random" departSpeed="10" />
    <vehicle id="W_E_177" type="standard_car" route="W_E" depart="731.0" departLane="random" departSpeed="10" />
    <vehicle id="W_E_178" type="standard_car" route="W_E" depart="732.0" departLane="random" departSpeed="10" />
    <vehicle id="E_W_179" type="standard_car" route="E_W" depart="735.0" departLane="random" departSpeed="10" />
    <vehicle id="S_N_180" type="standard_car" route="S_N" depart="735.0" departLane="random" departSpeed="10" />
    <vehicle id="E_W_181" type="standard_car" route="E_W" depart="737.0" departLane="random" departSpeed="10" />
    <vehicle id="N_S_182" type="standard_car" route="N_S" depart="741.0" departLane="random" departSpeed="10" />
    <vehicle id="S_N_183" type="standard_car" route="S_N" depart="743.0" departLane="random" departSpeed="10" />
    <vehicle id="W_E_184" type="standard_car" route="W_E" depart="744.0" departLane="random" departSpeed="10" />
    <vehicle id="N_S_185" type="standard_car" route="N_S" depart="746.0" departLane="random" departSpeed="10" />
    <vehicle id="E_W_186" type="standard_car" route="E_W" depart="746.0" departLane="random" departSpeed="10" />
    <vehicle id="S_N_187" type="standard_car" route="S_N" depart="753.0" departLane="random" departSpeed="10" />
    <vehicle id="E_W_188" type="standard_car" route="E_W" depart="755.0" departLane="random" departSpeed="10" />
    <vehicle id="E_W_189" type="standard_car" route="E_W" depart="762.0" departLane="random" departSpeed="10" />
    <vehicle id="E_W_190" type="standard_car" route="E_W" depart="765.0" departLane="random" departSpeed="10" />
    <vehicle id="E_W_191" type="standard_car" route="E_W" depart="767.0" departLane="random" departSpeed="10" />
    <vehicle id="S_N_192" type="standard_car" route="S_N" depart="769.0" departLane="random" departSpeed="10" />
    <vehicle id="W_E_193" type="standard_car" route="W_E" depart="771.0" departLane="random" departSpeed="10" />
    <vehicle id="W_E_194" type="standard_car" route="W_E" depart="772.0" departLane="random" departSpeed="10" />
    <vehicle id="W_E_195" type="standard_car" route="W_E" depart="773.0" departLane="random" departSpeed="10" />
    <vehicle id="E_W_196" type="standard_car" route="E_W" depart="774.0" departLane="random" departSpeed="10" />
    <vehicle id="W_E_197" type="standard_car" route="W_E" depart="787.0" departLane="random" departSpeed="10" />
    <vehicle id="E_W_198" type="standard_car" route="E_W" depart="787.0" departLane="random" departSpeed="10" />
    <vehicle id="N_S_199" type="standard_car" route="N_S" depart="790.0" departLane="random" departSpeed="10" />
    <vehicle id="E_W_200" type="standard_car" route="E_W" depart="791.0" departLane="random" departSpeed="10" />
    <vehicle id="S_N_201" type="standard_car" route="S_N" depart="795.0" departLane="random" departSpeed="10" />
    <vehicle id="S_N_202" type="standard_car" route="S_N" depart="795.0" departLane="random" departSpeed="10" />
    <vehicle id="W_E_203" type="standard_car" route="W_E" depart="795.0" departLane="random" departSpeed="10" />
    <vehicle id="E_W_204" type="standard_car" route="E_W" depart="796.0" departLane="random" departSpeed="10" />
    <vehicle id="N_S_205" type="standard_car" route="N_S" depart="799.0" departLane="random" departSpeed="10" />
    <vehicle id="S_N_206" type="standard_car" route="S_N" depart="799.0" departLane="random" departSpeed="10" />
    <vehicle id="S_N_207" type="standard_car" route="S_N" depart="802.0" departLane="random" departSpeed="10" />
    <vehicle id="W_E_208" type="standard_car" route="W_E" depart="803.0" departLane="random" departSpeed="10" />
    <vehicle id="E_W_209" type="standard_car" route="E_W" depart="804.0" departLane="random" departSpeed="10" />
    <vehicle id="N_S_210" type="standard_car" route="N_S" depart="807.0" departLane="random" departSpeed="10" />
    <vehicle id="S_N_211" type="standard_car" route="S_N" depart="809.0" departLane="random" departSpeed="10" />
    <vehicle id="E_W_212" type="standard_car" route="E_W" depart="815.0" departLane="random" departSpeed="10" />
    <vehicle id="N_S_213" type="standard_car" route="N_S" depart="817.0" departLane="random" departSpeed="10" />
    <vehicle id="W_E_214" type="standard_car" route="W_E" depart="817.0" departLane="random" departSpeed="10" />
    <vehicle id="S_N_215" type="standard_car" route="S_N" depart="819.0" departLane="random" departSpeed="10" />
    <vehicle id="E_W_216" type="standard_car" route="E_W" depart="820.0" departLane="random" departSpeed="10" />
    <vehicle id="N_E_217" type="standard_car" route="N_E" depart="827.0" departLane="random" departSpeed="10" />
    <vehicle id="N_S_218" type="standard_car" route="N_S" depart="827.0" departLane="random" departSpeed="10" />
    <vehicle id="N_E_219" type="standard_car" route="N_E" depart="828.0" departLane="random" departSpeed="10" />
    <vehicle id="E_W_220" type="standard_car" route="E_W" depart="836.0" departLane="random" departSpeed="10" />
    <vehicle id="S_N_221" type="standard_car" route="S_N" depart="837.0" departLane="random" departSpeed="10" />
    <vehicle id="N_S_222" type="standard_car" route="N_S" depart="837.0" departLane="random" departSpeed="10" />
    <vehicle id="N_S_223" type="standard_car" route="N_S" depart="840.0" departLane="random" departSpeed="10" />
    <vehicle id="E_W_224" type="standard_car" route="E_W" depart="841.0" departLane="random" departSpeed="10" />
    <vehicle id="N_W_225" type="standard_car" route="N_W" depart="843.0" departLane="random" departSpeed="10" />
    <vehicle id="W_E_226" type="standard_car" route="W_E" depart="843.0" departLane="random" departSpeed="10" />
    <vehicle id="S_E_227" type="standard_car" route="S_E" depart="847.0" departLane="random" departSpeed="10" />
    <vehicle id="W_E_228" type="standard_car" route="W_E" depart="849.0" departLane="random" departSpeed="10" />
    <vehicle id="W_E_229" type="standard_car" route="W_E" depart="851.0" departLane="random" departSpeed="10" />
    <vehicle id="N_S_230" type="standard_car" route="N_S" depart="852.0" departLane="random" departSpeed="10" />
    <vehicle id="W_E_231" type="standard_car" route="W_E" depart="853.0" departLane="random" departSpeed="10" />
    <vehicle id="E_W_232" type="standard_car" route="E_W" depart="853.0" departLane="random" departSpeed="10" />
    <vehicle id="E_W_233" type="standard_car" route="E_W" depart="858.0" departLane="random" departSpeed="10" />
    <vehicle id="N_S_234" type="standard_car" route="N_S" depart="863.0" departLane="random" departSpeed="10" />
    <vehicle id="S_N_235" type="standard_car" route="S_N" depart="864.0" departLane="random" departSpeed="10" />
    <vehicle id="N_S_236" type="standard_car" route="N_S" depart="864.0" departLane="random" departSpeed="10" />
    <vehicle id="E_W_237" type="standard_car" route="E_W" depart="867.0" departLane="random" departSpeed="10" />
    <vehicle id="E_W_238" type="standard_car" route="E_W" depart="868.0" departLane="random" departSpeed="10" />
    <vehicle id="E_W_239" type="standard_car" route="E_W" depart="869.0" departLane="random" departSpeed="10" />
    <vehicle id="E_W_240" type="standard_car" route="E_W" depart="870.0" departLane="random" departSpeed="10" />
    <vehicle id="W_E_241" type="standard_car" route="W_E" depart="870.0" departLane="random" departSpeed="10" />
    <vehicle id="N_W_242" type="standard_car" route="N_W" depart="870.0" departLane="random" departSpeed="10" />
    <vehicle id="S_N_243" type="standard_car" route="S_N" depart="874.0" departLane="random" departSpeed="10" />
    <vehicle id="E_N_244" type="standard_car" route="E_N" depart="875.0" departLane="random" departSpeed="10" />
    <vehicle id="W_E_245" type="standard_car" route="W_E" depart="878.0" departLane="random" departSpeed="10" />
    <vehicle id="S_N_246" type="standard_car" route="S_N" depart="879.0" departLane="random" departSpeed="10" />
    <vehicle id="S_W_247" type="standard_car" route="S_W" depart="882.0" departLane="random" departSpeed="10" />
    <vehicle id="N_W_248" type="standard_car" route="N_W" depart="882.0" departLane="random" departSpeed="10" />
    <vehicle id="S_N_249" type="standard_car" route="S_N" depart="883.0" departLane="random" departSpeed="10" />
    <vehicle id="S_N_250" type="standard_car" route="S_N" depart="884.0" departLane="random" departSpeed="10" />
    <vehicle id="E_W_251" type="standard_car" route="E_W" depart="886.0" departLane="random" departSpeed="10" />
    <vehicle id="E_W_252" type="standard_car" route="E_W" depart="888.0" departLane="random" departSpeed="10" />
    <vehicle id="N_S_253" type="standard_car" route="N_S" depart="889.0" departLane="random" departSpeed="10" />
    <vehicle id="N_S_254" type="standard_car" route="N_S" depart="889.0" departLane="random" departSpeed="10" />
    <vehicle id="S_N_255" type="standard_car" route="S_N" depart="890.0" departLane="random" departSpeed="10" />
    <vehicle id="S_N_256" type="standard_car" route="S_N" depart="890.0" departLane="random" departSpeed="10" />
    <vehicle id="W_E_257" type="standard_car" route="W_E" depart="891.0" departLane="random" departSpeed="10" />
    <vehicle id="E_W_258" type="standard_car" route="E_W" depart="892.0" departLane="random" departSpeed="10" />
    <vehicle id="E_W_259" type="standard_car" route="E_W" depart="897.0" departLane="random" departSpeed="10" />